MATPOWER/system_condensers_removed_cutoff75.m
%% MATPOWER Case Format : Version 2
function mpc = CaliforniaTestSystem
mpc.version = '2';

%%-----  Power Flow Data  -----%%
%% system MVA base
mpc.baseMVA = 100;
%% bus data
%    bus_i    type    Pd    Qd    Gs    Bs    area    Vm    Va    baseKV    zone    Vmax    Vmin
mpc.bus = [
	1	1	56.6305477	16.8298619	0.0	0.0	0	1.0	-1.9398059299999997	115.0	0	1.06	0.94
	2	1	12.1925924	2.53165799	0.0	0.0	0	1.0	-1.7335246200000003	66.0	0	1.06	0.94
	3	1	0.0	0.0	0.0	0.0	0	1.0	-1.76337868	66.0	0	1.06	0.94
	4	1	22.7970837	8.37324562	0.0	0.0	0	1.0	-1.80275679	230.0	0	1.06	0.94
	5	1	115.972748	31.4555386	0.0	0.0	0	1.0	-1.8971778900000003	115.0	0	1.06	0.94
	6	2	0.0	0.0	0.0	0.0	0	1.0	-3.0285089200000006	66.0	0	1.06	0.94
	7	1	130.119494	39.2228971	0.0	0.0	0	1.0	-1.88482693	115.0	0	1.06	0.94
	8	1	65.7624416	18.1186025	0.0	0.0	0	1.0	-1.9329511700000002	115.0	0	1.06	0.94
	9	1	8.12221285	3.03705964	0.0	0.0	0	1.0	-1.8389517500000003	115.0	0	1.06	0.94
	10	1	24.9280246	6.611186100000001	0.0	0.0	0	1.0	-1.90881322	115.0	0	1.06	0.94
	11	1	6.289233830000001	1.45492275	0.0	0.0	0	1.0	-1.87029284	115.0	0	1.06	0.94
	12	1	5.86119021	1.80931205	0.0	0.0	0	1.0	-1.83241485	66.0	0	1.06	0.94
	13	1	35.1203816	11.5633226	0.0	0.0	0	1.0	-1.89699598	115.0	0	1.06	0.94
	14	1	38.5284297	11.9347169	0.0	0.0	0	1.0	-1.8614509000000001	66.0	0	1.06	0.94
	15	1	24.9681545	8.94459912	0.0	0.0	0	1.0	-1.8144838	66.0	0	1.06	0.94
	16	2	22.5232238	6.49471098	0.0	0.0	0	1.0	-1.86240222	66.0	0	1.06	0.94
	17	2	46.4927618	13.7259567	0.0	0.0	0	1.0	-1.84519619	66.0	0	1.06	0.94
	18	1	0.0	0.0	0.0	0.0	0	1.0	-1.63023015	230.0	0	1.06	0.94
	19	2	47.2000621	12.1442492	0.0	0.0	0	1.0	-1.9164254099999998	115.0	0	1.06	0.94
	20	1	72.6881705	23.0951179	0.0	0.0	0	1.0	-1.93845689	115.0	0	1.06	0.94
	21	1	12.790079099999998	4.39501833	0.0	0.0	0	1.0	-1.8260134900000002	115.0	0	1.06	0.94
	22	1	8.30597002	2.70063263	0.0	0.0	0	1.0	-1.8410521500000003	115.0	0	1.06	0.94
	23	1	0.0	0.0	0.0	0.0	0	1.0	-1.7775493100000002	66.0	0	1.06	0.94
	24	1	8.13624283	2.6918989	0.0	0.0	0	1.0	-1.8414864000000002	66.0	0	1.06	0.94
	25	1	4.42639756	1.61663677	0.0	0.0	0	1.0	-1.8811082900000002	66.0	0	1.06	0.94
	26	1	5.37260916	1.55738785	0.0	0.0	0	1.0	-1.86452695	66.0	0	1.06	0.94
	27	1	5.26240942	1.7837502200000002	0.0	0.0	0	1.0	-1.87401788	66.0	0	1.06	0.94
	28	2	0.0	0.0	0.0	0.0	0	1.0	-1.85560919	66.0	0	1.06	0.94
	29	1	8.16231537	2.40540718	0.0	0.0	0	1.0	-1.8643913600000002	66.0	0	1.06	0.94
	30	1	4.57603438	1.57384767	0.0	0.0	0	1.0	-1.8687985599999999	66.0	0	1.06	0.94
	31	1	2.58340987	0.908727711	0.0	0.0	0	1.0	-1.90719102	66.0	0	1.06	0.94
	32	2	0.0	0.0	0.0	0.0	0	1.0	-1.85269029	115.0	0	1.06	0.94
	33	1	4.94620865	1.8065810299999998	0.0	0.0	0	1.0	-1.8370349300000002	66.0	0	1.06	0.94
	34	1	0.0	0.0	0.0	0.0	0	1.0	-1.79136128	115.0	0	1.06	0.94
	35	1	0.0	0.0	0.0	0.0	0	1.0	-1.9177870500000003	66.0	0	1.06	0.94
	36	1	8.24989955	2.42602059	0.0	0.0	0	1.0	-2.17136225	66.0	0	1.06	0.94
	37	1	12.896387500000001	2.83768363	0.0	0.0	0	1.0	-1.92179128	66.0	0	1.06	0.94
	38	1	2.62467636	0.9556706229999999	0.0	0.0	0	1.0	-2.17595447	66.0	0	1.06	0.94
	39	1	5.98058171	2.08841931	0.0	0.0	0	1.0	-0.195557869	115.0	0	1.06	0.94
	40	1	0.0	0.0	0.0	0.0	0	1.0	-1.96189059	66.0	0	1.06	0.94
	41	1	3.5026978100000004	1.20284334	0.0	0.0	0	1.0	-1.9865265200000002	66.0	0	1.06	0.94
	42	1	4.98218492	1.5074445	0.0	0.0	0	1.0	-2.21990256	115.0	0	1.06	0.94
	43	2	0.0	0.0	0.0	0.0	0	1.0	-1.9067350600000001	115.0	0	1.06	0.94
	44	1	8.42753915	3.11061767	0.0	0.0	0	1.0	-1.9019514600000003	115.0	0	1.06	0.94
	45	1	0.0	0.0	0.0	0.0	0	1.0	0.555613354	115.0	0	1.06	0.94
	46	2	0.0	0.0	0.0	0.0	0	1.0	-1.867221	115.0	0	1.06	0.94
	47	1	14.2293846	3.50808234	0.0	0.0	0	1.0	-1.9636666099999998	66.0	0	1.06	0.94
	48	1	19.3326949	6.08459668	0.0	0.0	0	1.0	-1.9054192600000002	115.0	0	1.06	0.94
	49	2	0.0	0.0	0.0	0.0	0	1.0	-1.9040247199999998	66.0	0	1.06	0.94
	50	1	0.0	0.0	0.0	0.0	0	1.0	-1.9126274600000002	66.0	0	1.06	0.94
	51	2	0.0	0.0	0.0	0.0	0	1.0	-2.17286691	66.0	0	1.06	0.94
	52	1	2.09453206	0.752592196	0.0	0.0	0	1.0	-1.9057878899999998	115.0	0	1.06	0.94
	53	1	4.63394452	1.28715016	0.0	0.0	0	1.0	-2.2161384	115.0	0	1.06	0.94
	54	1	0.0	0.0	0.0	0.0	0	1.0	-1.8490807400000002	115.0	0	1.06	0.94
	55	1	3.17523238	1.28323777	0.0	0.0	0	1.0	-1.82975354	66.0	0	1.06	0.94
	56	1	8.27241654	2.44010369	0.0	0.0	0	1.0	-1.8423134800000003	115.0	0	1.06	0.94
	57	1	0.0	0.0	0.0	0.0	0	1.0	-1.8389620500000001	66.0	0	1.06	0.94
	58	1	0.0	0.0	0.0	0.0	0	1.0	-1.83817297	115.0	0	1.06	0.94
	59	1	0.0	0.0	0.0	0.0	0	1.0	-1.74070941	230.0	0	1.06	0.94
	60	2	0.0	0.0	0.0	0.0	0	1.0	-1.83817297	115.0	0	1.06	0.94
	61	1	0.0	0.0	0.0	0.0	0	1.0	-1.82796839	66.0	0	1.06	0.94
	62	1	0.0	0.0	0.0	0.0	0	1.0	-2.16988286	66.0	0	1.06	0.94
	63	1	7.59149755	2.2616254	0.0	0.0	0	1.0	-2.1204573	66.0	0	1.06	0.94
	64	1	6.697559729999999	1.97266917	0.0	0.0	0	1.0	-2.1810664	66.0	0	1.06	0.94
	65	1	7.24963602	2.45097519	0.0	0.0497	0	1.0	-2.17978042	66.0	0	1.06	0.94
	66	1	0.0	0.0	0.0	0.0	0	1.0	-2.09891984	66.0	0	1.06	0.94
	67	1	3.20898239	0.9088764770000001	0.0	0.0	0	1.0	-2.07085394	66.0	0	1.06	0.94
	68	2	0.0	0.0	0.0	0.0	0	1.0	-2.1331414	66.0	0	1.06	0.94
	69	1	18.9960297	6.26890899	0.0	0.0	0	1.0	-1.8732834100000002	115.0	0	1.06	0.94
	70	1	2.44323077	0.9427515120000001	0.0	0.0	0	1.0	-1.70926769	66.0	0	1.06	0.94
	71	2	0.0	0.0	0.0	0.0	0	1.0	-1.82216882	66.0	0	1.06	0.94
	72	1	2.45799235	0.9888953169999999	0.0	0.0	0	1.0	-1.70022783	66.0	0	1.06	0.94
	73	1	0.0	0.0	0.0	0.0	0	1.0	-1.82228258	66.0	0	1.06	0.94
	74	1	58.3494814	12.1760605	0.0	0.0	0	1.0	-1.8863565	115.0	0	1.06	0.94
	75	1	7.424550619999999	2.51135487	0.0	0.0	0	1.0	-1.86808469	115.0	0	1.06	0.94
	76	2	0.0	0.0	0.0	0.0	0	1.0	-1.94185932	66.0	0	1.06	0.94
	77	1	25.3356052	7.9602181100000005	0.0	0.0	0	1.0	-1.9535923599999998	66.0	0	1.06	0.94
	78	1	3.9504617499999997	1.34712272	0.0	0.0	0	1.0	-1.71997808	66.0	0	1.06	0.94
	79	1	0.0	0.0	0.0	0.0	0	1.0	-1.75423754	66.0	0	1.06	0.94
	80	1	6.13758119	2.04565905	0.0	0.0	0	1.0	-1.8572525	115.0	0	1.06	0.94
	81	1	3.96635966	1.60188639	0.0	0.0	0	1.0	-1.75930088	66.0	0	1.06	0.94
	82	1	56.2658675	20.2789527	0.0	0.0	0	1.0	-1.86362063	115.0	0	1.06	0.94
	83	1	8.2653928	1.8148775800000003	0.0	0.0	0	1.0	-1.8123717799999999	115.0	0	1.06	0.94
	84	1	11.1321808	4.07691895	0.0	0.0	0	1.0	-1.8408755300000001	66.0	0	1.06	0.94
	85	1	3.34525308	1.16007433	0.0	0.0	0	1.0	-1.8862139799999997	115.0	0	1.06	0.94
	86	1	3.9856985499999995	1.33804365	0.0	0.0	0	1.0	-1.87311537	115.0	0	1.06	0.94
	87	1	4.32136332	1.20650633	0.0	0.0	0	1.0	-1.8037213700000003	115.0	0	1.06	0.94
	88	1	21.2907186	5.96381779	0.0	0.0	0	1.0	-1.9428407000000003	66.0	0	1.06	0.94
	89	1	0.0	0.0	0.0	0.0	0	1.0	-1.70924869	66.0	0	1.06	0.94
	90	2	4.23818639	1.41811241	0.0	0.0	0	1.0	-1.86138501	115.0	0	1.06	0.94
	91	1	4.55639825	1.83593505	0.0	0.0	0	1.0	-1.75638805	66.0	0	1.06	0.94
	92	1	60.402067599999995	19.9082342	0.0	0.0	0	1.0	-1.8859818200000003	115.0	0	1.06	0.94
	93	1	43.8934269	10.9223832	0.0	0.0	0	1.0	-1.9637964900000002	115.0	0	1.06	0.94
	94	1	10.220178	3.3751630300000004	0.0	0.0	0	1.0	-1.9598267500000002	66.0	0	1.06	0.94
	95	1	34.4571316	11.2580904	0.0	0.0	0	1.0	-1.79268787	230.0	0	1.06	0.94
	96	1	6.64334114	2.14152049	0.0	0.0	0	1.0	-1.9794283200000002	66.0	0	1.06	0.94
	97	1	0.0	0.0	0.0	0.0	0	1.0	-1.92684101	66.0	0	1.06	0.94
	98	1	0.0	0.0	0.0	0.0	0	1.0	-2.18807428	66.0	0	1.06	0.94
	99	1	12.739746699999998	4.05430365	0.0	0.0	0	1.0	-1.89616984	115.0	0	1.06	0.94
	100	1	8.40409689	2.47461992	0.0	0.0	0	1.0	-1.9766817600000002	115.0	0	1.06	0.94
	101	1	14.9407967	4.50373314	0.0	0.0	0	1.0	-2.01410144	66.0	0	1.06	0.94
	102	1	7.98153293	2.61116082	0.0	0.0	0	1.0	-2.06900491	66.0	0	1.06	0.94
	103	2	0.0	0.0	0.0	0.0	0	1.0	-1.95932964	115.0	0	1.06	0.94
	104	1	7.18614121	2.54613614	0.0	0.0	0	1.0	-2.00098907	66.0	0	1.06	0.94
	105	2	0.0	0.0	0.0	0.0	0	1.0	-1.8666551100000002	66.0	0	1.06	0.94
	106	2	5.40467383	1.5704352099999999	0.0	0.0	0	1.0	-1.8910542100000003	115.0	0	1.06	0.94
	107	1	34.1070171	8.03254582	0.0	0.0	0	1.0	-0.549530416	115.0	0	1.06	0.94
	108	2	33.1997529	10.35987	0.0	0.0	0	1.0	-0.645077915	115.0	0	1.06	0.94
	109	1	1.69090942	0.645520634	0.0	0.0	0	1.0	-0.715003219	66.0	0	1.06	0.94
	110	1	10.7401663	2.73404865	0.0	0.0	0	1.0	-0.888714083	66.0	0	1.06	0.94
	111	2	0.0	0.0	0.0	0.0	0	1.0	-1.04280584	500.0	0	1.06	0.94
	112	2	0.0	0.0	0.0	0.0	0	1.0	-0.8884993830000001	66.0	0	1.06	0.94
	113	2	0.0	0.0	0.0	0.0	0	1.0	-0.574791361	115.0	0	1.06	0.94
	114	1	11.5169429	2.14096752	0.0	0.0	0	1.0	-1.2655264300000002	66.0	0	1.06	0.94
	115	1	7.03469662	2.30488372	0.0	0.0	0	1.0	-0.86596821	66.0	0	1.06	0.94
	116	2	0.0	0.0	0.0	0.0	0	1.0	-1.14816583	66.0	0	1.06	0.94
	117	1	12.9890765	4.19116165	0.0	0.0	0	1.0	-1.12673895	115.0	0	1.06	0.94
	118	1	5.35696083	1.06867683	0.0	0.0	0	1.0	-1.13065103	66.0	0	1.06	0.94
	119	1	15.5623155	4.77506887	0.0	0.0	0	1.0	-1.07524384	66.0	0	1.06	0.94
	120	1	4.16106141	1.33904115	0.0	0.0	0	1.0	-0.725753296	66.0	0	1.06	0.94
	121	2	0.0	0.0	0.0	0.0	0	1.0	-1.11845536	115.0	0	1.06	0.94
	122	1	2.47614264	0.665391905	0.0	0.0	0	1.0	-1.19557871	66.0	0	1.06	0.94
	123	1	5.2771966	1.8743563	0.0	0.0	0	1.0	-0.8165483540000001	66.0	0	1.06	0.94
	124	1	11.6802862	2.92542483	0.0	0.0	0	1.0	-1.13473042	115.0	0	1.06	0.94
	125	2	0.0	0.0	0.0	0.0	0	1.0	-0.4674285020000001	66.0	0	1.06	0.94
	126	1	7.18418508	2.59634329	0.0	0.0	0	1.0	-0.886776199	66.0	0	1.06	0.94
	127	1	0.0	0.0	0.0	0.0	0	1.0	-0.703017534	66.0	0	1.06	0.94
	128	1	5.50750283	2.06631889	0.0	0.0	0	1.0	-0.7208555480000001	66.0	0	1.06	0.94
	129	1	0.0	0.0	0.0	0.0	0	1.0	-1.19703367	66.0	0	1.06	0.94
	130	1	0.0	0.0	0.0	0.0	0	1.0	-1.080986	66.0	0	1.06	0.94
	131	2	0.0	0.0	0.0	0.0	0	1.0	-1.07516969	66.0	0	1.06	0.94
	132	1	0.0	0.0	0.0	0.0	0	1.0	-0.992140878	66.0	0	1.06	0.94
	133	1	2.9570706	0.898348595	0.0	0.0	0	1.0	-0.9081184530000002	66.0	0	1.06	0.94
	134	1	0.0	0.0	0.0	0.0	0	1.0	-0.90762032	66.0	0	1.06	0.94
	135	1	0.0	0.0	0.0	0.0	0	1.0	-0.579938309	115.0	0	1.06	0.94
	136	1	10.5497909	2.64716879	0.0	0.0	0	1.0	-0.466449496	230.0	0	1.06	0.94
	137	2	0.0	0.0	0.0	0.0	0	1.0	-1.18292184	66.0	0	1.06	0.94
	138	2	0.0	0.0	0.0	0.0	0	1.0	-1.18591175	66.0	0	1.06	0.94
	139	1	11.0947274	3.05884067	0.0	0.0	0	1.0	-0.919656984	66.0	0	1.06	0.94
	140	1	19.5985169	5.92936968	0.0	0.0	0	1.0	-0.685852892	66.0	0	1.06	0.94
	141	1	0.0	0.0	0.0	0.0	0	1.0	-0.6211202450000001	115.0	0	1.06	0.94
	142	1	17.3481699	5.36443914	0.0	0.0	0	1.0	-0.61740432	115.0	0	1.06	0.94
	143	1	0.0	0.0	0.0	0.0	0	1.0	-0.688998393	66.0	0	1.06	0.94
	144	1	0.0	0.0	0.0	0.0	0	1.0	-1.07653913	66.0	0	1.06	0.94
	145	2	0.0	0.0	0.0	0.0	0	1.0	-1.09144506	66.0	0	1.06	0.94
	146	1	5.46823566	1.12666832	0.0	0.0	0	1.0	-0.618804677	66.0	0	1.06	0.94
	147	1	86.760028	18.0278573	0.0	0.0	0	1.0	-0.581817574	115.0	0	1.06	0.94
	148	1	12.719975699999999	3.1553552	0.0	0.0	0	1.0	-1.15168519	66.0	0	1.06	0.94
	149	2	0.0	0.0	0.0	0.0	0	1.0	-1.11262553	66.0	0	1.06	0.94
	150	1	9.2354472	3.1703263499999994	0.0	0.0	0	1.0	-1.1817598400000002	115.0	0	1.06	0.94
	151	1	4.85304924	1.45562543	0.0	0.0	0	1.0	-2.0219455900000005	66.0	0	1.06	0.94
	152	1	0.0	0.0	0.0	0.0	0	1.0	-1.9035901500000003	66.0	0	1.06	0.94
	153	1	0.0	0.0	0.0	0.0	0	1.0	-1.94449753	66.0	0	1.06	0.94
	154	1	5.77528991	1.6076352299999999	0.0	0.0	0	1.0	-1.78655474	230.0	0	1.06	0.94
	155	2	0.0	0.0	0.0	0.0	0	1.0	-1.95171622	66.0	0	1.06	0.94
	156	1	4.9370406	1.41840823	0.0	0.0	0	1.0	-2.0298776200000006	66.0	0	1.06	0.94
	157	1	0.0	0.0	0.0	0.0	0	1.0	-2.01293091	66.0	0	1.06	0.94
	158	2	0.0	0.0	0.0	0.0	0	1.0	-2.00639938	66.0	0	1.06	0.94
	159	2	0.0	0.0	0.0	0.0	0	1.0	-2.18376599	66.0	0	1.06	0.94
	160	1	12.6652367	3.7934997499999996	0.0	0.0	0	1.0	-2.1762775	66.0	0	1.06	0.94
	161	1	4.01075163	1.41817901	0.0	0.0	0	1.0	-2.21592608	66.0	0	1.06	0.94
	162	1	0.0	0.0	0.0	0.0	0	1.0	-2.18376599	66.0	0	1.06	0.94
	163	1	0.0	0.0	0.0	0.0	0	1.0	-2.18376599	66.0	0	1.06	0.94
	164	2	0.0	0.0	0.0	0.0	0	1.0	-2.03738056	115.0	0	1.06	0.94
	165	2	0.0	0.0	0.0	0.0	0	1.0	-2.18268297	66.0	0	1.06	0.94
	166	2	0.0	0.0	0.0	0.0	0	1.0	-3.04767069	66.0	0	1.06	0.94
	167	1	3.8868750300000006	1.21421185	0.0	0.0	0	1.0	-3.05534857	66.0	0	1.06	0.94
	168	1	0.0	0.0	0.0	0.0	0	1.0	-3.036599	66.0	0	1.06	0.94
	169	1	9.93445559	3.71061931	0.0	0.0	0	1.0	-2.16264486	66.0	0	1.06	0.94
	170	2	0.0	0.0	0.0	0.0	0	1.0	-2.16989294	66.0	0	1.06	0.94
	171	1	5.16631547	1.65275168	0.0	0.0	0	1.0	-2.18038071	66.0	0	1.06	0.94
	172	1	11.2415249	0.763814777	0.0	0.0	0	1.0	-2.182848	66.0	0	1.06	0.94
	173	1	0.0	0.0	0.0	0.0	0	1.0	-2.19854475	66.0	0	1.06	0.94
	174	1	5.61177034	2.11547476	0.0	0.0	0	1.0	-1.64445622	230.0	0	1.06	0.94
	175	2	0.0	0.0	0.0	0.0	0	1.0	-2.20679647	66.0	0	1.06	0.94
	176	1	0.0	0.0	0.0	0.0	0	1.0	-2.12090854	66.0	0	1.06	0.94
	177	1	5.82997179	1.7152536	0.0	0.0	0	1.0	-2.20659424	66.0	0	1.06	0.94
	178	1	0.0	0.0	0.0	0.0	0	1.0	-2.13308192	66.0	0	1.06	0.94
	179	1	8.9952765	2.43885611	0.0	0.0	0	1.0	-1.8851127	66.0	0	1.06	0.94
	180	1	8.63825524	3.12890573	0.0	0.0	0	1.0	-2.21073759	66.0	0	1.06	0.94
	181	2	7.63892679	2.15730456	0.0	0.0	0	1.0	0.829116116	115.0	0	1.06	0.94
	182	2	0.0	0.0	0.0	0.0	0	1.0	0.698453587	115.0	0	1.06	0.94
	183	1	2.04354138	0.854943639	0.0	0.0	0	1.0	0.935785762	66.0	0	1.06	0.94
	184	1	6.87473334	2.17697341	0.0	0.0	0	1.0	1.00473126	115.0	0	1.06	0.94
	185	1	0.0	0.0	0.0	0.0	0	1.0	0.713644437	115.0	0	1.06	0.94
	186	1	15.039292299999998	5.3216582	0.0	0.0	0	1.0	0.903843074	66.0	0	1.06	0.94
	187	1	11.6706536	3.74795647	0.0	0.0	0	1.0	0.81955293	115.0	0	1.06	0.94
	188	1	9.8672335	3.4273112	0.0	0.0	0	1.0	0.652624204	115.0	0	1.06	0.94
	189	1	0.0	0.0	0.0	0.0	0	1.0	0.854676153	115.0	0	1.06	0.94
	190	1	4.25502742	1.22368797	0.0	0.0	0	1.0	0.897244032	115.0	0	1.06	0.94
	191	1	0.0	0.0	0.0	0.0	0	1.0	0.8983428200000001	115.0	0	1.06	0.94
	192	2	0.0	0.0	0.0	0.0	0	1.0	0.854078988	66.0	0	1.06	0.94
	193	1	1.61401553	0.515696338	0.0	0.0	0	1.0	0.9351431990000001	66.0	0	1.06	0.94
	194	2	0.0	0.0	0.0	0.0	0	1.0	0.872314008	115.0	0	1.06	0.94
	195	2	0.0	0.0	0.0	0.0	0	1.0	0.9722283470000002	66.0	0	1.06	0.94
	196	1	0.0	0.0	0.0	0.0	0	1.0	0.921732718	115.0	0	1.06	0.94
	197	1	5.44687009	2.06464213	0.0	0.0	0	1.0	0.850254041	115.0	0	1.06	0.94
	198	2	0.0	0.0	0.0	0.0	0	1.0	0.765124565	115.0	0	1.06	0.94
	199	1	6.20466944	2.04914783	0.0	0.0	0	1.0	0.820652507	66.0	0	1.06	0.94
	200	2	0.0	0.0	0.0	0.0	0	1.0	0.828221651	66.0	0	1.06	0.94
...
];

%% generator data
%    bus    Pg    Qg    Qmax    Qmin    Vg    mBase    status    Pmax    Pmin    Pc1    Pc2    Qc1min    Qc1max    Qc2min    Qc2max    ramp_agc    ramp_10    ramp_30    ramp_q    apf
mpc.gen = [
	745	4.0333628	0.0	18.7771429	-14.670714300000002	1.0	0.0	1	12.1	0	0.0	0.0	0.0	0.0	0.0	0.0	0.0	0.0	0.0	0.0	0.0
	1804	0.0	0.0	34.5	-23.7	1.0	0.0	1	71.2	0	0.0	0.0	0.0	0.0	0.0	0.0	0.0	0.0	0.0	0.0	0.0
	1804	0.0	0.0	34.5	-23.7	1.0	0.0	1	71.2	0	0.0	0.0	0.0	0.0	0.0	0.0	0.0	0.0	0.0	0.0	0.0
	1964	0.366669117	0.0	18.7771429	-14.670714300000002	1.0	0.0	1	1.1	0	0.0	0.0	0.0	0.0	0.0	0.0	0.0	0.0	0.0	0.0	0.0
	1964	0.366669117	0.0	18.7771429	-14.670714300000002	1.0	0.0	1	1.1	0	0.0	0.0	0.0	0.0	0.0	0.0	0.0	0.0	0.0	0.0	0.0
	1964	0.366669117	0.0	18.7771429	-14.670714300000002	1.0	0.0	1	1.1	0	0.0	0.0	0.0	0.0	0.0	0.0	0.0	0.0	0.0	0.0	0.0
	1360	0.166667613	0.0	18.7771429	-14.670714300000002	1.0	0.0	1	0.5	0	0.0	0.0	0.0	0.0	0.0	0.0	0.0	0.0	0.0	0.0	0.0
	1360	0.166667613	0.0	18.7771429	-14.670714300000002	1.0	0.0	1	0.5	0	0.0	0.0	0.0	0.0	0.0	0.0	0.0	0.0	0.0	0.0	0.0
	1745	0.333335524	0.0	18.7771429	-14.670714300000002	1.0	0.0	1	1.0	0	0.0	0.0	0.0	0.0	0.0	0.0	0.0	0.0	0.0	0.0	0.0
	744	0.333335524	0.0	18.7771429	-14.670714300000002	1.0	0.0	1	1.0	0	0.0	0.0	0.0	0.0	0.0	0.0	0.0	0.0	0.0	0.0	0.0
	1587	0.46666988099999995	0.0	18.7771429	-14.670714300000002	1.0	0.0	1	1.4	0	0.0	0.0	0.0	0.0	0.0	0.0	0.0	0.0	0.0	0.0	0.0
	8022	39.30029	0.0	57.10000000000001	-39.3	1.0	0.0	1	117.9	0	0.0	0.0	0.0	0.0	0.0	0.0	0.0	0.0	0.0	0.0	0.0
	2220	11.0000809	0.0	0.0	0.0	1.0	0.0	1	33.0	0	0.0	0.0	0.0	0.0	0.0	0.0	0.0	0.0	0.0	0.0	0.0
	2220	11.0000809	0.0	0.0	0.0	1.0	0.0	1	33.0	0	0.0	0.0	0.0	0.0	0.0	0.0	0.0	0.0	0.0	0.0	0.0
	1748	13.3334314	0.0	19.4	-13.3	1.0	0.0	1	40.0	0	0.0	0.0	0.0	0.0	0.0	0.0	0.0	0.0	0.0	0.0	0.0
	8542	7.93339151	0.0	11.5	-7.9	1.0	0.0	1	23.8	0	0.0	0.0	0.0	0.0	0.0	0.0	0.0	0.0	0.0	0.0	0.0
	8542	8.33339446	0.0	12.1	-8.3	1.0	0.0	1	25.0	0	0.0	0.0	0.0	0.0	0.0	0.0	0.0	0.0	0.0	0.0	0.0
	8542	8.33339446	0.0	12.1	-8.3	1.0	0.0	1	25.0	0	0.0	0.0	0.0	0.0	0.0	0.0	0.0	0.0	0.0	0.0	0.0
	8542	20.1001481	0.0	29.2	-20.1	1.0	0.0	1	60.3	0	0.0	0.0	0.0	0.0	0.0	0.0	0.0	0.0	0.0	0.0	0.0
	8542	19.2001415	0.0	27.9	-19.2	1.0	0.0	1	57.60000000000001	0	0.0	0.0	0.0	0.0	0.0	0.0	0.0	0.0	0.0	0.0	0.0
	1743	4.0333628	0.0	18.7771429	-14.670714300000002	1.0	0.0	1	12.1	0	0.0	0.0	0.0	0.0	0.0	0.0	0.0	0.0	0.0	0.0	0.0
	1735	0.233334754	0.0	18.7771429	-14.670714300000002	1.0	0.0	1	0.7	0	0.0	0.0	0.0	0.0	0.0	0.0	0.0	0.0	0.0	0.0	0.0
	1735	0.233334754	0.0	18.7771429	-14.670714300000002	1.0	0.0	1	0.7	0	0.0	0.0	0.0	0.0	0.0	0.0	0.0	0.0	0.0	0.0	0.0
	8578	4.00002922	0.0	5.95	-4.1	1.0	0.0	1	12.0	0	0.0	0.0	0.0	0.0	0.0	0.0	0.0	0.0	0.0	0.0	0.0
	8578	4.00002922	0.0	5.95	-4.1	1.0	0.0	1	12.0	0	0.0	0.0	0.0	0.0	0.0	0.0	0.0	0.0	0.0	0.0	0.0
	8578	4.00002922	0.0	5.95	-4.1	1.0	0.0	1	12.0	0	0.0	0.0	0.0	0.0	0.0	0.0	0.0	0.0	0.0	0.0	0.0
	8578	4.40003218	0.0	5.95	-4.1	1.0	0.0	1	13.200000000000001	0	0.0	0.0	0.0	0.0	0.0	0.0	0.0	0.0	0.0	0.0	0.0
	744	7.33338707	0.0	16.5	-7.3	1.0	0.0	1	22.0	0	0.0	0.0	0.0	0.0	0.0	0.0	0.0	0.0	0.0	0.0	0.0
	106	3.33335758	0.0	7.5	-3.35	1.0	0.0	1	10.0	0	0.0	0.0	0.0	0.0	0.0	0.0	0.0	0.0	0.0	0.0	0.0
	106	3.33335758	0.0	7.5	-3.35	1.0	0.0	1	10.0	0	0.0	0.0	0.0	0.0	0.0	0.0	0.0	0.0	0.0	0.0	0.0
	7778	10.7667458	0.0	15.6	-10.8	1.0	0.0	1	32.3	0	0.0	0.0	0.0	0.0	0.0	0.0	0.0	0.0	0.0	0.0	0.0
	7778	11.700086	0.0	17.0	-11.7	1.0	0.0	1	35.1	0	0.0	0.0	0.0	0.0	0.0	0.0	0.0	0.0	0.0	0.0	0.0
	7778	11.700086	0.0	17.0	-11.7	1.0	0.0	1	35.1	0	0.0	0.0	0.0	0.0	0.0	0.0	0.0	0.0	0.0	0.0	0.0
	1634	22.5001659	0.0	32.7	-22.5	1.0	0.0	1	67.5	0	0.0	0.0	0.0	0.0	0.0	0.0	0.0	0.0	0.0	0.0	0.0
	1634	22.5001659	0.0	32.7	-22.5	1.0	0.0	1	67.5	0	0.0	0.0	0.0	0.0	0.0	0.0	0.0	0.0	0.0	0.0	0.0
	749	4.53336649	0.0	18.7771429	-14.670714300000002	1.0	0.0	1	13.600000000000001	0	0.0	0.0	0.0	0.0	0.0	0.0	0.0	0.0	0.0	0.0	0.0
	339	0.86667277	0.0	18.7771429	-14.670714300000002	1.0	0.0	1	2.6	0	0.0	0.0	0.0	0.0	0.0	0.0	0.0	0.0	0.0	0.0	0.0
	339	0.900006343	0.0	18.7771429	-14.670714300000002	1.0	0.0	1	2.7	0	0.0	0.0	0.0	0.0	0.0	0.0	0.0	0.0	0.0	0.0	0.0
	1286	3.3333576100000006	0.0	18.7771429	-14.670714300000002	1.0	0.0	1	10.0	0	0.0	0.0	0.0	0.0	0.0	0.0	0.0	0.0	0.0	0.0	0.0
	8427	3.3333576100000006	0.0	18.7771429	-14.670714300000002	1.0	0.0	1	10.0	0	0.0	0.0	0.0	0.0	0.0	0.0	0.0	0.0	0.0	0.0	0.0
	170	16.7001233	0.0	12.5222222	-5.56666667	1.0	0.0	1	16.7	0	0.0	0.0	0.0	0.0	0.0	0.0	0.0	0.0	0.0	0.0	0.0
	170	16.7001233	0.0	12.5222222	-5.56666667	1.0	0.0	1	16.7	0	0.0	0.0	0.0	0.0	0.0	0.0	0.0	0.0	0.0	0.0	0.0
	170	16.7001233	0.0	12.5222222	-5.56666667	1.0	0.0	1	16.7	0	0.0	0.0	0.0	0.0	0.0	0.0	0.0	0.0	0.0	0.0	0.0
	170	16.7001233	0.0	12.5222222	-5.56666667	1.0	0.0	1	16.7	0	0.0	0.0	0.0	0.0	0.0	0.0	0.0	0.0	0.0	0.0	0.0
	170	16.7001233	0.0	12.5222222	-5.56666667	1.0	0.0	1	16.7	0	0.0	0.0	0.0	0.0	0.0	0.0	0.0	0.0	0.0	0.0	0.0
	170	16.7001233	0.0	12.5222222	-5.56666667	1.0	0.0	1	16.7	0	0.0	0.0	0.0	0.0	0.0	0.0	0.0	0.0	0.0	0.0	0.0
	170	16.7001233	0.0	12.5222222	-5.56666667	1.0	0.0	1	16.7	0	0.0	0.0	0.0	0.0	0.0	0.0	0.0	0.0	0.0	0.0	0.0
	170	16.7001233	0.0	12.5222222	-5.56666667	1.0	0.0	1	16.7	0	0.0	0.0	0.0	0.0	0.0	0.0	0.0	0.0	0.0	0.0	0.0
	170	16.7001233	0.0	12.5222222	-5.56666667	1.0	0.0	1	16.7	0	0.0	0.0	0.0	0.0	0.0	0.0	0.0	0.0	0.0	0.0	0.0
	170	16.7001233	0.0	12.5222222	-5.56666667	1.0	0.0	1	16.7	0	0.0	0.0	0.0	0.0	0.0	0.0	0.0	0.0	0.0	0.0	0.0
	1746	2.53335168	0.0	18.7771429	-14.670714300000002	1.0	0.0	1	7.6	0	0.0	0.0	0.0	0.0	0.0	0.0	0.0	0.0	0.0	0.0	0.0
	1728	28.3668759	0.0	41.2	-28.4	1.0	0.0	1	85.1	0	0.0	0.0	0.0	0.0	0.0	0.0	0.0	0.0	0.0	0.0	0.0
	1728	27.8335386	0.0	40.4	-27.800000000000004	1.0	0.0	1	83.5	0	0.0	0.0	0.0	0.0	0.0	0.0	0.0	0.0	0.0	0.0	0.0
	1643	3.76669415	0.0	18.7771429	-14.670714300000002	1.0	0.0	1	11.3	0	0.0	0.0	0.0	0.0	0.0	0.0	0.0	0.0	0.0	0.0	0.0
	1643	3.76669415	0.0	18.7771429	-14.670714300000002	1.0	0.0	1	11.3	0	0.0	0.0	0.0	0.0	0.0	0.0	0.0	0.0	0.0	0.0	0.0
	1734	0.500003463	0.0	18.7771429	-14.670714300000002	1.0	0.0	1	1.5	0	0.0	0.0	0.0	0.0	0.0	0.0	0.0	0.0	0.0	0.0	0.0
	615	1.13334137	0.0	18.7771429	-14.670714300000002	1.0	0.0	1	3.4000000000000004	0	0.0	0.0	0.0	0.0	0.0	0.0	0.0	0.0	0.0	0.0	0.0
	7971	181.82405	0.0	144.4	-77.7	1.0	0.0	1	233.0	0	0.0	0.0	0.0	0.0	0.0	0.0	0.0	0.0	0.0	0.0	0.0
	7971	181.82405	0.0	144.4	-77.7	1.0	0.0	1	233.0	0	0.0	0.0	0.0	0.0	0.0	0.0	0.0	0.0	0.0	0.0	0.0
	7971	181.82405	0.0	144.4	-77.7	1.0	0.0	1	233.0	0	0.0	0.0	0.0	0.0	0.0	0.0	0.0	0.0	0.0	0.0	0.0
	7971	181.82405	0.0	144.4	-77.7	1.0	0.0	1	233.0	0	0.0	0.0	0.0	0.0	0.0	0.0	0.0	0.0	0.0	0.0	0.0
	7971	181.82405	0.0	144.4	-77.7	1.0	0.0	1	233.0	0	0.0	0.0	0.0	0.0	0.0	0.0	0.0	0.0	0.0	0.0	0.0
	7971	181.82405	0.0	144.4	-77.7	1.0	0.0	1	233.0	0	0.0	0.0	0.0	0.0	0.0	0.0	0.0	0.0	0.0	0.0	0.0
	60	1.20000852	0.0	18.7771429	-14.670714300000002	1.0	0.0	1	3.6000000000000005	0	0.0	0.0	0.0	0.0	0.0	0.0	0.0	0.0	0.0	0.0	0.0
	1448	0.53333704	0.0	18.7771429	-14.670714300000002	1.0	0.0	1	1.6	0	0.0	0.0	0.0	0.0	0.0	0.0	0.0	0.0	0.0	0.0	0.0
	8553	11.5334181	0.0	16.8	-11.5	1.0	0.0	1	34.6	0	0.0	0.0	0.0	0.0	0.0	0.0	0.0	0.0	0.0	0.0	0.0
	8553	11.5334181	0.0	16.8	-11.5	1.0	0.0	1	34.6	0	0.0	0.0	0.0	0.0	0.0	0.0	0.0	0.0	0.0	0.0	0.0
	1727	17.2334603	0.0	25.0	-17.2	1.0	0.0	1	51.7	0	0.0	0.0	0.0	0.0	0.0	0.0	0.0	0.0	0.0	0.0	0.0
	1727	17.2334603	0.0	25.0	-17.2	1.0	0.0	1	51.7	0	0.0	0.0	0.0	0.0	0.0	0.0	0.0	0.0	0.0	0.0	0.0
	1730	12.733427	0.0	21.6	-12.7	1.0	0.0	1	38.2	0	0.0	0.0	0.0	0.0	0.0	0.0	0.0	0.0	0.0	0.0	0.0
	1730	12.733427	0.0	21.6	-12.7	1.0	0.0	1	38.2	0	0.0	0.0	0.0	0.0	0.0	0.0	0.0	0.0	0.0	0.0	0.0
	1730	11.066748	0.0	24.9	-11.1	1.0	0.0	1	33.2	0	0.0	0.0	0.0	0.0	0.0	0.0	0.0	0.0	0.0	0.0	0.0
	1730	10.6667451	0.0	24.0	-10.7	1.0	0.0	1	32.0	0	0.0	0.0	0.0	0.0	0.0	0.0	0.0	0.0	0.0	0.0	0.0
	1729	13.200097099999999	0.0	19.2	-13.200000000000001	1.0	0.0	1	39.6	0	0.0	0.0	0.0	0.0	0.0	0.0	0.0	0.0	0.0	0.0	0.0
	1729	13.200097099999999	0.0	19.2	-13.200000000000001	1.0	0.0	1	39.6	0	0.0	0.0	0.0	0.0	0.0	0.0	0.0	0.0	0.0	0.0	0.0
	1501	1.46667714	0.0	18.7771429	-14.670714300000002	1.0	0.0	1	4.4	0	0.0	0.0	0.0	0.0	0.0	0.0	0.0	0.0	0.0	0.0	0.0
	1501	0.666671338	0.0	18.7771429	-14.670714300000002	1.0	0.0	1	2.0	0	0.0	0.0	0.0	0.0	0.0	0.0	0.0	0.0	0.0	0.0	0.0
	1501	1.00000706	0.0	18.7771429	-14.670714300000002	1.0	0.0	1	3.0	0	0.0	0.0	0.0	0.0	0.0	0.0	0.0	0.0	0.0	0.0	0.0
	2220	21.0001548	0.0	30.5	-21.0	1.0	0.0	1	63.0	0	0.0	0.0	0.0	0.0	0.0	0.0	0.0	0.0	0.0	0.0	0.0
	2220	21.0001548	0.0	30.5	-21.0	1.0	0.0	1	63.0	0	0.0	0.0	0.0	0.0	0.0	0.0	0.0	0.0	0.0	0.0	0.0
	32	4.10002996	0.0	18.7771429	-14.670714300000002	1.0	0.0	1	12.3	0	0.0	0.0	0.0	0.0	0.0	0.0	0.0	0.0	0.0	0.0	0.0
	32	9.90007271	0.0	14.400000000000002	-9.9	1.0	0.0	1	29.7	0	0.0	0.0	0.0	0.0	0.0	0.0	0.0	0.0	0.0	0.0	0.0
	1745	2.23334946	0.0	18.7771429	-14.670714300000002	1.0	0.0	1	6.7	0	0.0	0.0	0.0	0.0	0.0	0.0	0.0	0.0	0.0	0.0	0.0
	746	2.3333502	0.0	18.7771429	-14.670714300000002	1.0	0.0	1	7.000000000000001	0	0.0	0.0	0.0	0.0	0.0	0.0	0.0	0.0	0.0	0.0	0.0
	746	1.2333421	0.0	18.7771429	-14.670714300000002	1.0	0.0	1	3.7000000000000006	0	0.0	0.0	0.0	0.0	0.0	0.0	0.0	0.0	0.0	0.0	0.0
	746	2.20001588	0.0	18.7771429	-14.670714300000002	1.0	0.0	1	6.6000000000000005	0	0.0	0.0	0.0	0.0	0.0	0.0	0.0	0.0	0.0	0.0	0.0
	1502	2.00001441	0.0	18.7771429	-14.670714300000002	1.0	0.0	1	6.0	0	0.0	0.0	0.0	0.0	0.0	0.0	0.0	0.0	0.0	0.0	0.0
	1890	27.300201299999998	0.0	39.7	-27.3	1.0	0.0	1	81.9	0	0.0	0.0	0.0	0.0	0.0	0.0	0.0	0.0	0.0	0.0	0.0
	8623	8.50006236	0.0	15.8	-8.5	1.0	0.0	1	25.5	0	0.0	0.0	0.0	0.0	0.0	0.0	0.0	0.0	0.0	0.0	0.0
	8623	8.90006533	0.0	16.5	-8.9	1.0	0.0	1	26.700000000000003	0	0.0	0.0	0.0	0.0	0.0	0.0	0.0	0.0	0.0	0.0	0.0
	1892	1.40000998	0.0	18.7771429	-14.670714300000002	1.0	0.0	1	4.2	0	0.0	0.0	0.0	0.0	0.0	0.0	0.0	0.0	0.0	0.0	0.0
	1892	1.40000998	0.0	18.7771429	-14.670714300000002	1.0	0.0	1	4.2	0	0.0	0.0	0.0	0.0	0.0	0.0	0.0	0.0	0.0	0.0	0.0
	1745	2.8333539	0.0	18.7771429	-14.670714300000002	1.0	0.0	1	8.5	0	0.0	0.0	0.0	0.0	0.0	0.0	0.0	0.0	0.0	0.0	0.0
	1958	4.53336649	0.0	18.7771429	-14.670714300000002	1.0	0.0	1	13.600000000000001	0	0.0	0.0	0.0	0.0	0.0	0.0	0.0	0.0	0.0	0.0	0.0
	1755	4.53336649	0.0	18.7771429	-14.670714300000002	1.0	0.0	1	13.600000000000001	0	0.0	0.0	0.0	0.0	0.0	0.0	0.0	0.0	0.0	0.0	0.0
	1755	0.933339916	0.0	18.7771429	-14.670714300000002	1.0	0.0	1	2.8	0	0.0	0.0	0.0	0.0	0.0	0.0	0.0	0.0	0.0	0.0	0.0
	1724	3.33335758	0.0	7.5	-3.35	1.0	0.0	1	10.0	0	0.0	0.0	0.0	0.0	0.0	0.0	0.0	0.0	0.0	0.0	0.0
	1724	3.33335758	0.0	7.5	-3.35	1.0	0.0	1	10.0	0	0.0	0.0	0.0	0.0	0.0	0.0	0.0	0.0	0.0	0.0	0.0
	8064	4.50003288	0.0	6.550000000000001	-4.5	1.0	0.0	1	13.5	0	0.0	0.0	0.0	0.0	0.0	0.0	0.0	0.0	0.0	0.0	0.0
	8064	4.50003288	0.0	6.550000000000001	-4.5	1.0	0.0	1	13.5	0	0.0	0.0	0.0	0.0	0.0	0.0	0.0	0.0	0.0	0.0	0.0
	8064	0.166667613	0.0	6.550000000000001	-4.5	1.0	0.0	1	0.5	0	0.0	0.0	0.0	0.0	0.0	0.0	0.0	0.0	0.0	0.0	0.0
	8064	0.133334067	0.0	6.550000000000001	-4.5	1.0	0.0	1	0.4	0	0.0	0.0	0.0	0.0	0.0	0.0	0.0	0.0	0.0	0.0	0.0
	8064	0.400002707	0.0	6.550000000000001	-4.5	1.0	0.0	1	1.2	0	0.0	0.0	0.0	0.0	0.0	0.0	0.0	0.0	0.0	0.0	0.0
	1723	6.00004391	0.0	18.7771429	-14.670714300000002	1.0	0.0	1	18.0	0	0.0	0.0	0.0	0.0	0.0	0.0	0.0	0.0	0.0	0.0	0.0
	1722	0.666671339	0.0	18.7771429	-14.670714300000002	1.0	0.0	1	2.0	0	0.0	0.0	0.0	0.0	0.0	0.0	0.0	0.0	0.0	0.0	0.0
	1722	0.666671339	0.0	18.7771429	-14.670714300000002	1.0	0.0	1	2.0	0	0.0	0.0	0.0	0.0	0.0	0.0	0.0	0.0	0.0	0.0	0.0
	8113	0.0	0.0	0.0	0.0	1.0	0.0	1	310.0	0	0.0	0.0	0.0	0.0	0.0	0.0	0.0	0.0	0.0	0.0	0.0
	8113	0.0	0.0	0.0	0.0	1.0	0.0	1	310.0	0	0.0	0.0	0.0	0.0	0.0	0.0	0.0	0.0	0.0	0.0	0.0
	8113	0.0	0.0	0.0	0.0	1.0	0.0	1	495.0	0	0.0	0.0	0.0	0.0	0.0	0.0	0.0	0.0	0.0	0.0	0.0
	1632	5.26670527	0.0	5.325	-5.325	1.0	0.0	1	15.8	0	0.0	0.0	0.0	0.0	0.0	0.0	0.0	0.0	0.0	0.0	0.0
	1632	5.26670527	0.0	5.325	-5.325	1.0	0.0	1	15.8	0	0.0	0.0	0.0	0.0	0.0	0.0	0.0	0.0	0.0	0.0	0.0
	1632	5.83337612	0.0	5.325	-5.325	1.0	0.0	1	17.5	0	0.0	0.0	0.0	0.0	0.0	0.0	0.0	0.0	0.0	0.0	0.0
	1632	5.83337612	0.0	5.325	-5.325	1.0	0.0	1	17.5	0	0.0	0.0	0.0	0.0	0.0	0.0	0.0	0.0	0.0	0.0	0.0
	1644	11.3334167	0.0	0.0	0.0	1.0	0.0	1	34.0	0	0.0	0.0	0.0	0.0	0.0	0.0	0.0	0.0	0.0	0.0	0.0
	1644	11.3334167	0.0	0.0	0.0	1.0	0.0	1	34.0	0	0.0	0.0	0.0	0.0	0.0	0.0	0.0	0.0	0.0	0.0	0.0
	1644	11.3334167	0.0	0.0	0.0	1.0	0.0	1	34.0	0	0.0	0.0	0.0	0.0	0.0	0.0	0.0	0.0	0.0	0.0	0.0
	1644	12.0000882	0.0	17.4	-12.0	1.0	0.0	1	36.0	0	0.0	0.0	0.0	0.0	0.0	0.0	0.0	0.0	0.0	0.0	0.0
	1644	12.1667561	0.0	17.7	-12.2	1.0	0.0	1	36.5	0	0.0	0.0	0.0	0.0	0.0	0.0	0.0	0.0	0.0	0.0	0.0
	1635	10.0000735	0.0	0.0	0.0	1.0	0.0	1	30.0	0	0.0	0.0	0.0	0.0	0.0	0.0	0.0	0.0	0.0	0.0	0.0
	1635	15.0001104	0.0	21.8	-15.0	1.0	0.0	1	45.0	0	0.0	0.0	0.0	0.0	0.0	0.0	0.0	0.0	0.0	0.0	0.0
	1632	18.3334684	0.0	5.325	-5.325	1.0	0.0	1	55.00000000000001	0	0.0	0.0	0.0	0.0	0.0	0.0	0.0	0.0	0.0	0.0	0.0
	1632	18.3334684	0.0	5.325	-5.325	1.0	0.0	1	55.00000000000001	0	0.0	0.0	0.0	0.0	0.0	0.0	0.0	0.0	0.0	0.0	0.0
	1631	0.833339198	0.0	18.7771429	-14.670714300000002	1.0	0.0	1	2.5	0	0.0	0.0	0.0	0.0	0.0	0.0	0.0	0.0	0.0	0.0	0.0
	1631	0.833339198	0.0	18.7771429	-14.670714300000002	1.0	0.0	1	2.5	0	0.0	0.0	0.0	0.0	0.0	0.0	0.0	0.0	0.0	0.0	0.0
	1631	0.766672054	0.0	18.7771429	-14.670714300000002	1.0	0.0	1	2.3	0	0.0	0.0	0.0	0.0	0.0	0.0	0.0	0.0	0.0	0.0	0.0
	8381	0.933339916	0.0	18.7771429	-14.670714300000002	1.0	0.0	1	2.8	0	0.0	0.0	0.0	0.0	0.0	0.0	0.0	0.0	0.0	0.0	0.0
	8381	0.933339916	0.0	18.7771429	-14.670714300000002	1.0	0.0	1	2.8	0	0.0	0.0	0.0	0.0	0.0	0.0	0.0	0.0	0.0	0.0	0.0
	8381	0.933339916	0.0	18.7771429	-14.670714300000002	1.0	0.0	1	2.8	0	0.0	0.0	0.0	0.0	0.0	0.0	0.0	0.0	0.0	0.0	0.0
	1629	0.333335524	0.0	18.7771429	-14.670714300000002	1.0	0.0	1	1.0	0	0.0	0.0	0.0	0.0	0.0	0.0	0.0	0.0	0.0	0.0	0.0
	1629	0.333335524	0.0	18.7771429	-14.670714300000002	1.0	0.0	1	1.0	0	0.0	0.0	0.0	0.0	0.0	0.0	0.0	0.0	0.0	0.0	0.0
	1629	0.66667134	0.0	18.7771429	-14.670714300000002	1.0	0.0	1	2.0	0	0.0	0.0	0.0	0.0	0.0	0.0	0.0	0.0	0.0	0.0	0.0
	1629	0.733338483	0.0	18.7771429	-14.670714300000002	1.0	0.0	1	2.2	0	0.0	0.0	0.0	0.0	0.0	0.0	0.0	0.0	0.0	0.0	0.0
	1629	0.66667134	0.0	18.7771429	-14.670714300000002	1.0	0.0	1	2.0	0	0.0	0.0	0.0	0.0	0.0	0.0	0.0	0.0	0.0	0.0	0.0
	2312	0.66667134	0.0	18.7771429	-14.670714300000002	1.0	0.0	1	2.0	0	0.0	0.0	0.0	0.0	0.0	0.0	0.0	0.0	0.0	0.0	0.0
	2312	0.833339198	0.0	18.7771429	-14.670714300000002	1.0	0.0	1	2.5	0	0.0	0.0	0.0	0.0	0.0	0.0	0.0	0.0	0.0	0.0	0.0
	2247	0.533337043	0.0	18.7771429	-14.670714300000002	1.0	0.0	1	1.6	0	0.0	0.0	0.0	0.0	0.0	0.0	0.0	0.0	0.0	0.0	0.0
	285	1.00000706	0.0	18.7771429	-14.670714300000002	1.0	0.0	1	3.0	0	0.0	0.0	0.0	0.0	0.0	0.0	0.0	0.0	0.0	0.0	0.0
	285	1.00000706	0.0	18.7771429	-14.670714300000002	1.0	0.0	1	3.0	0	0.0	0.0	0.0	0.0	0.0	0.0	0.0	0.0	0.0	0.0	0.0
	285	2.00001441	0.0	18.7771429	-14.670714300000002	1.0	0.0	1	6.0	0	0.0	0.0	0.0	0.0	0.0	0.0	0.0	0.0	0.0	0.0	0.0
	990	0.500003463	0.0	18.7771429	-14.670714300000002	1.0	0.0	1	1.5	0	0.0	0.0	0.0	0.0	0.0	0.0	0.0	0.0	0.0	0.0	0.0
	990	0.500003463	0.0	18.7771429	-14.670714300000002	1.0	0.0	1	1.5	0	0.0	0.0	0.0	0.0	0.0	0.0	0.0	0.0	0.0	0.0	0.0
	8343	0.0	0.0	0.0	0.0	1.0	0.0	1	218.00000000000003	0	0.0	0.0	0.0	0.0	0.0	0.0	0.0	0.0	0.0	0.0	0.0
	2313	0.766672054	0.0	18.7771429	-14.670714300000002	1.0	0.0	1	2.3	0	0.0	0.0	0.0	0.0	0.0	0.0	0.0	0.0	0.0	0.0	0.0
	1663	6.833383379999999	0.0	9.9	-6.800000000000001	1.0	0.0	1	20.5	0	0.0	0.0	0.0	0.0	0.0	0.0	0.0	0.0	0.0	0.0	0.0
	1663	6.60004833	0.0	18.7771429	-14.670714300000002	1.0	0.0	1	19.8	0	0.0	0.0	0.0	0.0	0.0	0.0	0.0	0.0	0.0	0.0	0.0
	1662	2.20001589	0.0	3.2	-2.2	1.0	0.0	1	6.6000000000000005	0	0.0	0.0	0.0	0.0	0.0	0.0	0.0	0.0	0.0	0.0	0.0
	1662	2.20001589	0.0	3.2	-2.2	1.0	0.0	1	6.6000000000000005	0	0.0	0.0	0.0	0.0	0.0	0.0	0.0	0.0	0.0	0.0	0.0
	1662	2.20001589	0.0	3.2	-2.2	1.0	0.0	1	6.6000000000000005	0	0.0	0.0	0.0	0.0	0.0	0.0	0.0	0.0	0.0	0.0	0.0
	1662	2.20001589	0.0	3.2	-2.2	1.0	0.0	1	6.6000000000000005	0	0.0	0.0	0.0	0.0	0.0	0.0	0.0	0.0	0.0	0.0	0.0
	8347	52.30333029999999	0.0	30.5	-21.0	1.0	0.0	1	63.0	0	0.0	0.0	0.0	0.0	0.0	0.0	0.0	0.0	0.0	0.0	0.0
	8347	52.30333029999999	0.0	30.5	-21.0	1.0	0.0	1	63.0	0	0.0	0.0	0.0	0.0	0.0	0.0	0.0	0.0	0.0	0.0	0.0
	8347	52.30333029999999	0.0	30.5	-21.0	1.0	0.0	1	63.0	0	0.0	0.0	0.0	0.0	0.0	0.0	0.0	0.0	0.0	0.0	0.0
	8347	52.30333029999999	0.0	30.5	-21.0	1.0	0.0	1	63.0	0	0.0	0.0	0.0	0.0	0.0	0.0	0.0	0.0	0.0	0.0	0.0
	1636	31.666900300000002	0.0	0.0	0.0	1.0	0.0	1	95.0	0	0.0	0.0	0.0	0.0	0.0	0.0	0.0	0.0	0.0	0.0	0.0
	1636	31.666900300000002	0.0	0.0	0.0	1.0	0.0	1	95.0	0	0.0	0.0	0.0	0.0	0.0	0.0	0.0	0.0	0.0	0.0	0.0
	1483	0.0	0.0	499.5	-268.7	1.0	0.0	1	806.0	0	0.0	0.0	0.0	0.0	0.0	0.0	0.0	0.0	0.0	0.0	0.0
	1483	0.0	0.0	499.5	-268.7	1.0	0.0	1	806.0	0	0.0	0.0	0.0	0.0	0.0	0.0	0.0	0.0	0.0	0.0	0.0
	1602	3.76669416	0.0	18.7771429	-14.670714300000002	1.0	0.0	1	11.3	0	0.0	0.0	0.0	0.0	0.0	0.0	0.0	0.0	0.0	0.0	0.0
	7747	0.0	0.0	0.0	0.0	1.0	0.0	1	163.2	0	0.0	0.0	0.0	0.0	0.0	0.0	0.0	0.0	0.0	0.0	0.0
	7747	0.0	0.0	0.0	0.0	1.0	0.0	1	163.2	0	0.0	0.0	0.0	0.0	0.0	0.0	0.0	0.0	0.0	0.0	0.0
	7747	0.0	0.0	0.0	0.0	1.0	0.0	1	495.0	0	0.0	0.0	0.0	0.0	0.0	0.0	0.0	0.0	0.0	0.0	0.0
	2361	1.96668083	0.0	18.7771429	-14.670714300000002	1.0	0.0	1	5.9	0	0.0	0.0	0.0	0.0	0.0	0.0	0.0	0.0	0.0	0.0	0.0
	2361	2.40001736	0.0	18.7771429	-14.670714300000002	1.0	0.0	1	7.200000000000001	0	0.0	0.0	0.0	0.0	0.0	0.0	0.0	0.0	0.0	0.0	0.0
	7808	164.601216	0.0	123.50000000000001	-54.89999999999999	1.0	0.0	1	164.6	0	0.0	0.0	0.0	0.0	0.0	0.0	0.0	0.0	0.0	0.0	0.0
	7808	164.601216	0.0	123.50000000000001	-54.89999999999999	1.0	0.0	1	164.6	0	0.0	0.0	0.0	0.0	0.0	0.0	0.0	0.0	0.0	0.0	0.0
	7808	144.931702	0.0	141.9	-63.1	1.0	0.0	1	189.2	0	0.0	0.0	0.0	0.0	0.0	0.0	0.0	0.0	0.0	0.0	0.0
	7808	164.601216	0.0	123.50000000000001	-54.89999999999999	1.0	0.0	1	164.6	0	0.0	0.0	0.0	0.0	0.0	0.0	0.0	0.0	0.0	0.0	0.0
	7808	164.601216	0.0	123.50000000000001	-54.89999999999999	1.0	0.0	1	164.6	0	0.0	0.0	0.0	0.0	0.0	0.0	0.0	0.0	0.0	0.0	0.0
	7808	144.931702	0.0	141.9	-63.1	1.0	0.0	1	189.2	0	0.0	0.0	0.0	0.0	0.0	0.0	0.0	0.0	0.0	0.0	0.0
	1842	0.266668341	0.0	18.7771429	-14.670714300000002	1.0	0.0	1	0.8	0	0.0	0.0	0.0	0.0	0.0	0.0	0.0	0.0	0.0	0.0	0.0
	1842	0.266668341	0.0	18.7771429	-14.670714300000002	1.0	0.0	1	0.8	0	0.0	0.0	0.0	0.0	0.0	0.0	0.0	0.0	0.0	0.0	0.0
	1842	0.266668341	0.0	18.7771429	-14.670714300000002	1.0	0.0	1	0.8	0	0.0	0.0	0.0	0.0	0.0	0.0	0.0	0.0	0.0	0.0	0.0
	1842	0.266668341	0.0	18.7771429	-14.670714300000002	1.0	0.0	1	0.8	0	0.0	0.0	0.0	0.0	0.0	0.0	0.0	0.0	0.0	0.0	0.0
	1892	0.433336296	0.0	18.7771429	-14.670714300000002	1.0	0.0	1	1.3	0	0.0	0.0	0.0	0.0	0.0	0.0	0.0	0.0	0.0	0.0	0.0
	1892	0.433336296	0.0	18.7771429	-14.670714300000002	1.0	0.0	1	1.3	0	0.0	0.0	0.0	0.0	0.0	0.0	0.0	0.0	0.0	0.0	0.0
	2237	2.5000181	0.0	4.76666667	-2.63333333	1.0	0.0	1	7.5	0	0.0	0.0	0.0	0.0	0.0	0.0	0.0	0.0	0.0	0.0	0.0
	2237	2.5000181	0.0	4.76666667	-2.63333333	1.0	0.0	1	7.5	0	0.0	0.0	0.0	0.0	0.0	0.0	0.0	0.0	0.0	0.0	0.0
	2237	2.86668747	0.0	4.76666667	-2.63333333	1.0	0.0	1	8.6	0	0.0	0.0	0.0	0.0	0.0	0.0	0.0	0.0	0.0	0.0	0.0
	1693	10.3114346	0.0	12.4	-6.7	1.0	0.0	1	20.0	0	0.0	0.0	0.0	0.0	0.0	0.0	0.0	0.0	0.0	0.0	0.0
	1693	10.3114346	0.0	12.4	-6.7	1.0	0.0	1	20.0	0	0.0	0.0	0.0	0.0	0.0	0.0	0.0	0.0	0.0	0.0	0.0
	1693	0.0	0.0	14.3	-7.7	1.0	0.0	1	23.0	0	0.0	0.0	0.0	0.0	0.0	0.0	0.0	0.0	0.0	0.0	0.0
	1693	0.0	0.0	31.0	-16.7	1.0	0.0	1	50.0	0	0.0	0.0	0.0	0.0	0.0	0.0	0.0	0.0	0.0	0.0	0.0
	1693	0.0	0.0	31.0	-16.7	1.0	0.0	1	50.0	0	0.0	0.0	0.0	0.0	0.0	0.0	0.0	0.0	0.0	0.0	0.0
	1693	25.400187600000002	0.0	12.3	-8.5	1.0	0.0	1	25.4	0	0.0	0.0	0.0	0.0	0.0	0.0	0.0	0.0	0.0	0.0	0.0
	1693	55.100407	0.0	26.700000000000003	-18.4	1.0	0.0	1	55.1	0	0.0	0.0	0.0	0.0	0.0	0.0	0.0	0.0	0.0	0.0	0.0
	1693	52.5777524	0.0	35.6	-19.1	1.0	0.0	1	57.4	0	0.0	0.0	0.0	0.0	0.0	0.0	0.0	0.0	0.0	0.0	0.0
	1446	26.133526	0.0	25.8	-25.8	1.0	0.0	1	78.4	0	0.0	0.0	0.0	0.0	0.0	0.0	0.0	0.0	0.0	0.0	0.0
	1446	26.133526	0.0	25.8	-25.8	1.0	0.0	1	78.4	0	0.0	0.0	0.0	0.0	0.0	0.0	0.0	0.0	0.0	0.0	0.0
	1446	13.1667635	0.0	13.0	-13.0	1.0	0.0	1	39.5	0	0.0	0.0	0.0	0.0	0.0	0.0	0.0	0.0	0.0	0.0	0.0
	1446	13.1667635	0.0	13.0	-13.0	1.0	0.0	1	39.5	0	0.0	0.0	0.0	0.0	0.0	0.0	0.0	0.0	0.0	0.0	0.0
	1446	12.1667561	0.0	17.7	-12.2	1.0	0.0	1	36.5	0	0.0	0.0	0.0	0.0	0.0	0.0	0.0	0.0	0.0	0.0	0.0
	194	1.6666786100000002	0.0	18.7771429	-14.670714300000002	1.0	0.0	1	5.0	0	0.0	0.0	0.0	0.0	0.0	0.0	0.0	0.0	0.0	0.0	0.0
	194	1.6666786100000002	0.0	18.7771429	-14.670714300000002	1.0	0.0	1	5.0	0	0.0	0.0	0.0	0.0	0.0	0.0	0.0	0.0	0.0	0.0	0.0
	1719	1.60001146	0.0	18.7771429	-14.670714300000002	1.0	0.0	1	4.8	0	0.0	0.0	0.0	0.0	0.0	0.0	0.0	0.0	0.0	0.0	0.0
	1719	1.46667714	0.0	18.7771429	-14.670714300000002	1.0	0.0	1	4.4	0	0.0	0.0	0.0	0.0	0.0	0.0	0.0	0.0	0.0	0.0	0.0
	1718	3.3333576100000006	0.0	18.7771429	-14.670714300000002	1.0	0.0	1	10.0	0	0.0	0.0	0.0	0.0	0.0	0.0	0.0	0.0	0.0	0.0	0.0
	1718	3.2000232900000003	0.0	18.7771429	-14.670714300000002	1.0	0.0	1	9.6	0	0.0	0.0	0.0	0.0	0.0	0.0	0.0	0.0	0.0	0.0	0.0
	1528	5.50004029	0.0	12.4	-5.5	1.0	0.0	1	16.5	0	0.0	0.0	0.0	0.0	0.0	0.0	0.0	0.0	0.0	0.0	0.0
	1528	5.50004029	0.0	12.4	-5.5	1.0	0.0	1	16.5	0	0.0	0.0	0.0	0.0	0.0	0.0	0.0	0.0	0.0	0.0	0.0
	7751	18.4826212	0.0	21.4	-11.5	1.0	0.0	1	34.5	0	0.0	0.0	0.0	0.0	0.0	0.0	0.0	0.0	0.0	0.0	0.0
...
];

%% branch data
%    f_bus    t_bus    r    x    b    rateA    rateB    rateC    ratio    angle    status    angmin    angmax
mpc.branch = [
	1	2410	4.77325417e-5	0.000218973035	2.70512591e-5	175.0	0.0	0.0	0.0	0.0	1	-60.0001403060998	60.0001403060998
	2410	20	0.000914159703	0.00748537674	0.00232055065	437.0	0.0	0.0	0.0	0.0	1	-60.0001403060998	60.0001403060998
	2410	2411	0.00354038775	0.0161378013	0.00246932935	185.0	0.0	0.0	0.0	0.0	1	-60.0001403060998	60.0001403060998
	2411	1618	0.000155718691	0.000468686643	7.07109094e-5	142.0	0.0	0.0	0.0	0.0	1	-60.0001403060998	60.0001403060998
	2411	1617	0.000648026445	0.00410435055	0.00053719108	219.0	0.0	0.0	0.0	0.0	1	-60.0001403060998	60.0001403060998
	1617	2412	0.00104586812	0.00701611209	0.00081677558	219.0	0.0	0.0	0.0	0.0	1	-60.0001403060998	60.0001403060998
	2359	2360	0.23093904	0.368843148	0.00711508047	41.0	0.0	0.0	0.0	0.0	1	-60.0001403060998	60.0001403060998
	2031	2426	0.00167982866	0.00444059079	6.74965679e-5	64.0	0.0	0.0	0.0	0.0	1	-60.0001403060998	60.0001403060998
	6724	5593	0.000459576453	0.00411439019	7.22140345e-5	141.0	0.0	0.0	0.0	0.0	1	-60.0001403060998	60.0001403060998
	5593	2413	0.00427724305	0.015814843	0.000245113977	80.0	0.0	0.0	0.0	0.0	1	-60.0001403060998	60.0001403060998
	2426	6724	0.00119739685	0.00449177354	6.75837109e-5	80.0	0.0	0.0	0.0	0.0	1	-60.0001403060998	60.0001403060998
	2414	8021	0.00607038354	0.0205577663	0.00105555168	110.00000000000001	0.0	0.0	0.0	0.0	1	-60.0001403060998	60.0001403060998
	2415	2446	0.00268915041	0.0119827433	0.000170345901	176.0	0.0	0.0	0.0	0.0	1	-60.0001403060998	60.0001403060998
	2034	2417	0.000178272792	0.00144238896	3.11226109e-5	141.0	0.0	0.0	0.0	0.0	1	-60.0001403060998	60.0001403060998
	2436	2416	0.00536988394	0.0139169574	0.000220271394	64.0	0.0	0.0	0.0	0.0	1	-60.0001403060998	60.0001403060998
	2417	2436	0.000311443931	0.000823295262	1.25140108e-5	64.0	0.0	0.0	0.0	0.0	1	-60.0001403060998	60.0001403060998
	2417	2418	0.00533881931	0.0138364481	0.000218997126	64.0	0.0	0.0	0.0	0.0	1	-60.0001403060998	60.0001403060998
	1867	2034	0.00704879895	0.00968956783	0.000353618936	56.99999999999999	0.0	0.0	0.0	0.0	1	-60.0001403060998	60.0001403060998
	1866	2440	0.00437737203	0.00857881308	0.000107641909	41.0	0.0	0.0	0.0	0.0	1	-60.0001403060998	60.0001403060998
	2440	2419	0.0113465934	0.0325434284	0.000418943005	64.0	0.0	0.0	0.0	0.0	1	-60.0001403060998	60.0001403060998
	2420	1866	0.00258402742	0.00669693863	0.000105996101	64.0	0.0	0.0	0.0	0.0	1	-60.0001403060998	60.0001403060998
	2421	5705	0.0292415442	0.0231413002	0.000243913669	24.0	0.0	0.0	0.0	0.0	1	-60.0001403060998	60.0001403060998
	5705	2419	0.00155469396	0.00259654105	3.69090311e-5	78.0	0.0	0.0	0.0	0.0	1	-60.0001403060998	60.0001403060998
	2422	2423	0.0111844795	0.0320784635	0.000412957311	64.0	0.0	0.0	0.0	0.0	1	-60.0001403060998	60.0001403060998
	2423	2424	0.000984844088	0.00333522864	0.0001712486	110.00000000000001	0.0	0.0	0.0	0.0	1	-60.0001403060998	60.0001403060998
	2424	2425	0.00224089049	0.00567611124	9.41106365e-5	64.0	0.0	0.0	0.0	0.0	1	-60.0001403060998	60.0001403060998
	2425	2032	0.00444610709	0.0123153993	0.000170192582	64.0	0.0	0.0	0.0	0.0	1	-60.0001403060998	60.0001403060998
	2425	2414	0.00127788751	0.00337806797	5.13463182e-5	64.0	0.0	0.0	0.0	0.0	1	-60.0001403060998	60.0001403060998
	2426	2362	0.00967328069	0.0162273162	0.000627388317	64.0	0.0	0.0	0.0	0.0	1	-60.0001403060998	60.0001403060998
	2427	6726	0.000428856408	0.00118790119	1.64161853e-5	64.0	0.0	0.0	0.0	0.0	1	-60.0001403060998	60.0001403060998
	6726	2428	0.0100595772	0.0260712859	0.000412648398	64.0	0.0	0.0	0.0	0.0	1	-60.0001403060998	60.0001403060998
	2428	2429	0.00147847733	0.00176497675	6.30772255e-5	82.0	0.0	0.0	0.0	0.0	1	-60.0001403060998	60.0001403060998
	2429	2430	0.000959384485	0.00243009328	4.02912501e-5	64.0	0.0	0.0	0.0	0.0	1	-60.0001403060998	60.0001403060998
	2430	2033	0.00524468983	0.0135924954	0.000215135948	64.0	0.0	0.0	0.0	0.0	1	-60.0001403060998	60.0001403060998
	2031	2431	0.0141827017	0.016931221	0.000605095908	82.0	0.0	0.0	0.0	0.0	1	-60.0001403060998	60.0001403060998
	2431	2432	0.00543406783	0.0052504013	6.38209746e-5	56.00000000000001	0.0	0.0	0.0	0.0	1	-60.0001403060998	60.0001403060998
	2432	2033	0.0125774637	0.0117800569	0.000390557917	70.0	0.0	0.0	0.0	0.0	1	-60.0001403060998	60.0001403060998
	1867	2034	0.00539962535	0.00905807365	0.00035020714	64.0	0.0	0.0	0.0	0.0	1	-60.0001403060998	60.0001403060998
	1867	2433	0.00722960279	0.0121279362	0.000468895712	64.0	0.0	0.0	0.0	0.0	1	-60.0001403060998	60.0001403060998
	2434	2435	0.0017822708	0.00493676128	6.82235134e-5	64.0	0.0	0.0	0.0	0.0	1	-60.0001403060998	60.0001403060998
	2433	2438	0.000956141855	0.00214511943	2.86330647e-5	56.99999999999999	0.0	0.0	0.0	0.0	1	-60.0001403060998	60.0001403060998
	2438	2436	0.0168758595	0.0129447344	0.000145468799	24.0	0.0	0.0	0.0	0.0	1	-60.0001403060998	60.0001403060998
	2437	2438	0.001586018	0.0045006143	5.91950429e-5	64.0	0.0	0.0	0.0	0.0	1	-60.0001403060998	60.0001403060998
	2434	2437	0.000340729808	0.0005715866	2.20989137e-5	64.0	0.0	0.0	0.0	0.0	1	-60.0001403060998	60.0001403060998
	2435	2439	0.000544305267	0.0013787095	2.28591744e-5	64.0	0.0	0.0	0.0	0.0	1	-60.0001403060998	60.0001403060998
	2440	2420	0.00191367497	0.00505875855	7.68926621e-5	64.0	0.0	0.0	0.0	0.0	1	-60.0001403060998	60.0001403060998
	2420	2441	0.00282964472	0.0080296346	0.000105611098	64.0	0.0	0.0	0.0	0.0	1	-60.0001403060998	60.0001403060998
	2035	2421	0.00332991897	0.00944925041	0.000124282767	64.0	0.0	0.0	0.0	0.0	1	-60.0001403060998	60.0001403060998
	2441	2442	0.000206456326	0.000699175639	3.58994387e-5	110.00000000000001	0.0	0.0	0.0	0.0	1	-60.0001403060998	60.0001403060998
	2442	2443	0.000831074344	0.00210508734	3.49026104e-5	64.0	0.0	0.0	0.0	0.0	1	-60.0001403060998	60.0001403060998
	2443	2444	0.00020846076	0.000705963764	3.62479776e-5	110.00000000000001	0.0	0.0	0.0	0.0	1	-60.0001403060998	60.0001403060998
	2444	2445	0.00203788557	0.00564479724	7.80082331e-5	64.0	0.0	0.0	0.0	0.0	1	-60.0001403060998	60.0001403060998
	2445	2446	0.00283550889	0.00960263869	0.000493053318	110.00000000000001	0.0	0.0	0.0	0.0	1	-60.0001403060998	60.0001403060998
	2446	2034	0.000264075735	0.000894306927	4.59185295e-5	110.00000000000001	0.0	0.0	0.0	0.0	1	-60.0001403060998	60.0001403060998
	2446	2034	0.000276649236	0.000936887778	4.81048597e-5	110.00000000000001	0.0	0.0	0.0	0.0	1	-60.0001403060998	60.0001403060998
	2447	8021	0.000452088653	0.00246292072	0.000150496654	154.0	0.0	0.0	0.0	0.0	1	-60.0001403060998	60.0001403060998
	2418	8021	0.000973698622	0.0032974839	0.000169310582	110.00000000000001	0.0	0.0	0.0	0.0	1	-60.0001403060998	60.0001403060998
	2416	8021	0.000756738306	0.00256273576	0.000131584648	110.00000000000001	0.0	0.0	0.0	0.0	1	-60.0001403060998	60.0001403060998
	2363	2364	0.016685018	0.0229360016	0.000837047154	56.99999999999999	0.0	0.0	0.0	0.0	1	-60.0001403060998	60.0001403060998
	2363	2448	0.0154177762	0.0211939769	0.000773471782	56.99999999999999	0.0	0.0	0.0	0.0	1	-60.0001403060998	60.0001403060998
	2364	2448	0.000895990983	0.00106961608	3.82262329e-5	82.0	0.0	0.0	0.0	0.0	1	-60.0001403060998	60.0001403060998
	2448	2449	0.00205480826	0.00192452184	6.38058407e-5	70.0	0.0	0.0	0.0	0.0	1	-60.0001403060998	60.0001403060998
	2450	6732	0.00195446905	0.00327869295	0.000126762171	64.0	0.0	0.0	0.0	0.0	1	-60.0001403060998	60.0001403060998
	6732	5715	0.000844546891	0.0023073243	0.000109445066	92.0	0.0	0.0	0.0	0.0	1	-60.0001403060998	60.0001403060998
	2451	6731	0.000762008639	0.00156596071	2.49960031e-5	56.99999999999999	0.0	0.0	0.0	0.0	1	-60.0001403060998	60.0001403060998
	6731	2452	0.0082071505	0.0155111325	0.000210009447	41.0	0.0	0.0	0.0	0.0	1	-60.0001403060998	60.0001403060998
	2449	2451	0.000473987286	0.00120059608	1.99060317e-5	64.0	0.0	0.0	0.0	0.0	1	-60.0001403060998	60.0001403060998
	2451	2452	0.00558238747	0.00936466441	0.000362060699	64.0	0.0	0.0	0.0	0.0	1	-60.0001403060998	60.0001403060998
	2450	2452	0.000360773779	0.00122178018	6.27327703e-5	110.00000000000001	0.0	0.0	0.0	0.0	1	-60.0001403060998	60.0001403060998
	2453	2450	0.0160143661	0.0454438961	0.000597711623	64.0	0.0	0.0	0.0	0.0	1	-60.0001403060998	60.0001403060998
	2454	2453	0.00110429115	0.00373974277	0.000192018541	110.00000000000001	0.0	0.0	0.0	0.0	1	-60.0001403060998	60.0001403060998
	2454	2455	0.00205929226	0.00697390887	0.000358078202	110.00000000000001	0.0	0.0	0.0	0.0	1	-60.0001403060998	60.0001403060998
	2454	2365	0.00101290845	0.00551820141	0.00033719002	308.0	0.0	0.0	0.0	0.0	1	-60.0001403060998	60.0001403060998
	2455	2456	0.00972185506	0.017541482	0.000212274002	78.0	0.0	0.0	0.0	0.0	1	-60.0001403060998	60.0001403060998
	2456	8021	0.00443461325	0.0150181861	0.00077112286	110.00000000000001	0.0	0.0	0.0	0.0	1	-60.0001403060998	60.0001403060998
	2448	2457	0.0111592293	0.0187200688	0.000723764784	64.0	0.0	0.0	0.0	0.0	1	-60.0001403060998	60.0001403060998
	2457	6733	0.00257262027	0.0066673751	0.000105528183	64.0	0.0	0.0	0.0	0.0	1	-60.0001403060998	60.0001403060998
	6733	2458	0.00416078009	0.00874483471	0.000133365106	56.99999999999999	0.0	0.0	0.0	0.0	1	-60.0001403060998	60.0001403060998
	2439	1868	0.000727343647	0.000681225858	2.25854477e-5	70.0	0.0	0.0	0.0	0.0	1	-60.0001403060998	60.0001403060998
	5699	2032	0.0101521844	0.0223869688	0.000999879658	80.0	0.0	0.0	0.0	0.0	1	-60.0001403060998	60.0001403060998
	2459	780	0.00319228707	0.0542558346	0.192198063	1023.0	0.0	0.0	0.0	0.0	1	-60.0001403060998	60.0001403060998
	8185	2459	0.000885262041	0.0121798955	0.0242752098	1158.0	0.0	0.0	0.0	0.0	1	-60.0001403060998	60.0001403060998
	8204	8522	0.0150786935	0.0981963297	0.196516247	366.0	0.0	0.0	0.0	0.0	1	-60.0001403060998	60.0001403060998
	2385	2460	0.00445597566	0.00437727458	6.18506189e-5	30.0	0.0	0.0	0.0	0.0	1	-60.0001403060998	60.0001403060998
	2465	2461	0.0118402553	0.0179577371	0.000215459909	35.0	0.0	0.0	0.0	0.0	1	-60.0001403060998	60.0001403060998
	6742	2465	0.0752887963	0.0590154888	0.000634229629	24.0	0.0	0.0	0.0	0.0	1	-60.0001403060998	60.0001403060998
	2461	2387	0.00025137974	0.000256682032	3.34666955e-6	30.0	0.0	0.0	0.0	0.0	1	-60.0001403060998	60.0001403060998
	2460	6742	0.0880078979	0.0864566007	0.00122163636	30.0	0.0	0.0	0.0	0.0	1	-60.0001403060998	60.0001403060998
	2460	2462	0.0189842543	0.0148806716	0.000159920218	24.0	0.0	0.0	0.0	0.0	1	-60.0001403060998	60.0001403060998
	2462	2386	0.016281686	0.0171299256	0.000209922713	30.0	0.0	0.0	0.0	0.0	1	-60.0001403060998	60.0001403060998
	2461	2463	0.00925650738	0.00725564116	7.79752282e-5	24.0	0.0	0.0	0.0	0.0	1	-60.0001403060998	60.0001403060998
	2463	2462	0.00270147647	0.00494796781	7.15050294e-5	41.0	0.0	0.0	0.0	0.0	1	-60.0001403060998	60.0001403060998
	2463	2464	0.0214678813	0.0385858804	0.000580074019	41.0	0.0	0.0	0.0	0.0	1	-60.0001403060998	60.0001403060998
	2475	2469	0.0280222933	0.0202571004	0.000257168159	24.0	0.0	0.0	0.0	0.0	1	-60.0001403060998	60.0001403060998
	2471	2394	0.000554763172	0.000425534229	4.7820183e-6	24.0	0.0	0.0	0.0	0.0	1	-60.0001403060998	60.0001403060998
	2471	2470	0.0010908253	0.000802549745	9.82549015e-6	24.0	0.0	0.0	0.0	0.0	1	-60.0001403060998	60.0001403060998
	2469	2470	0.00270350627	0.00368842514	5.51851204e-5	35.0	0.0	0.0	0.0	0.0	1	-60.0001403060998	60.0001403060998
	2464	2475	0.00551322127	0.0118145044	0.000173162278	56.99999999999999	0.0	0.0	0.0	0.0	1	-60.0001403060998	60.0001403060998
	2464	2391	0.00399984724	0.00567804465	7.82098188e-5	35.0	0.0	0.0	0.0	0.0	1	-60.0001403060998	60.0001403060998
	2465	2466	0.0111103248	0.0111428008	0.000150829088	30.0	0.0	0.0	0.0	0.0	1	-60.0001403060998	60.0001403060998
	2466	2388	0.00179253574	0.00368373859	5.88001629e-5	56.99999999999999	0.0	0.0	0.0	0.0	1	-60.0001403060998	60.0001403060998
	2466	2467	0.00976221902	0.0191320994	0.00024005853	41.0	0.0	0.0	0.0	0.0	1	-60.0001403060998	60.0001403060998
	2467	2391	0.00463750507	0.00473532329	6.17400547e-5	30.0	0.0	0.0	0.0	0.0	1	-60.0001403060998	60.0001403060998
	2467	2468	0.00986699712	0.0186481712	0.000252482742	41.0	0.0	0.0	0.0	0.0	1	-60.0001403060998	60.0001403060998
	2468	2392	0.000568404308	0.000402628222	5.32835295e-6	24.0	0.0	0.0	0.0	0.0	1	-60.0001403060998	60.0001403060998
	2468	2469	0.0115182218	0.0174693183	0.000209599772	35.0	0.0	0.0	0.0	0.0	1	-60.0001403060998	60.0001403060998
	2470	2393	0.00709638668	0.0103874681	0.000134251535	35.0	0.0	0.0	0.0	0.0	1	-60.0001403060998	60.0001403060998
	2397	2477	0.000914486419	0.000898334756	1.26934142e-5	30.0	0.0	0.0	0.0	0.0	1	-60.0001403060998	60.0001403060998
	2477	2396	0.0129924051	0.0181070092	0.000259204054	35.0	0.0	0.0	0.0	0.0	1	-60.0001403060998	60.0001403060998
	2396	2472	0.0120599139	0.0238775105	0.000293381886	41.0	0.0	0.0	0.0	0.0	1	-60.0001403060998	60.0001403060998
	2472	2395	0.000535046638	0.00141438416	2.14985067e-5	64.0	0.0	0.0	0.0	0.0	1	-60.0001403060998	60.0001403060998
	2471	2470	0.00109212647	0.000837721787	9.41405097e-6	24.0	0.0	0.0	0.0	0.0	1	-60.0001403060998	60.0001403060998
	2472	2474	0.000742859975	0.0013064028	2.05493384e-5	41.0	0.0	0.0	0.0	0.0	1	-60.0001403060998	60.0001403060998
	2474	2473	0.0207446596	0.0149961378	0.000190379161	24.0	0.0	0.0	0.0	0.0	1	-60.0001403060998	60.0001403060998
	2474	2471	0.0054765358	0.0149612698	0.000212715874	64.0	0.0	0.0	0.0	0.0	1	-60.0001403060998	60.0001403060998
	2475	2473	0.0230388581	0.0253398718	0.000283115896	30.0	0.0	0.0	0.0	0.0	1	-60.0001403060998	60.0001403060998
	2476	2390	0.0039554101	0.00291010258	3.56279275e-5	24.0	0.0	0.0	0.0	0.0	1	-60.0001403060998	60.0001403060998
	2473	2476	0.0114404997	0.0226511244	0.000278313296	41.0	0.0	0.0	0.0	0.0	1	-60.0001403060998	60.0001403060998
	2476	2389	0.00650967615	0.0068488092	8.39303223e-5	30.0	0.0	0.0	0.0	0.0	1	-60.0001403060998	60.0001403060998
	2477	2272	0.0327961803	0.0642749365	0.000806492642	41.0	0.0	0.0	0.0	0.0	1	-60.0001403060998	60.0001403060998
	8619	2330	0.000448570569	0.000636775178	8.77098908e-6	35.0	0.0	0.0	0.0	0.0	1	-60.0001403060998	60.0001403060998
	2330	8563	0.0281836263	0.0552349577	0.000693061162	41.0	0.0	0.0	0.0	0.0	1	-60.0001403060998	60.0001403060998
	2478	1446	0.0209506423	0.0617861225	0.00693416718	256.0	0.0	0.0	0.0	0.0	1	-60.0001403060998	60.0001403060998
	2479	1446	0.000638683195	0.0039684246	0.000540107869	219.0	0.0	0.0	0.0	0.0	1	-60.0001403060998	60.0001403060998
	2480	1446	0.00148219049	0.00436977857	0.00049022018	128.0	0.0	0.0	0.0	0.0	1	-60.0001403060998	60.0001403060998
	2481	2487	0.0809334709	0.203648563	0.0254721786	118.0	0.0	0.0	0.0	0.0	1	-60.0001403060998	60.0001403060998
	2487	2486	3.40624293e-5	8.75604801e-5	1.04560073e-5	118.0	0.0	0.0	0.0	0.0	1	-60.0001403060998	60.0001403060998
	2486	2482	0.0133749958	0.0343825384	0.00410591033	118.0	0.0	0.0	0.0	0.0	1	-60.0001403060998	60.0001403060998
	8444	2478	0.0295263018	0.0794730417	0.0107562835	256.0	0.0	0.0	0.0	0.0	1	-60.0001403060998	60.0001403060998
	8444	2483	0.028864899	0.0785958617	0.00835164122	118.0	0.0	0.0	0.0	0.0	1	-60.0001403060998	60.0001403060998
	2484	2489	0.0140424492	0.0579930271	0.00661927754	318.0	0.0	0.0	0.0	0.0	1	-60.0001403060998	60.0001403060998
	2489	8336	0.0892168491	0.229617762	0.0274586447	118.0	0.0	0.0	0.0	0.0	1	-60.0001403060998	60.0001403060998
	1446	2485	0.00235550799	0.00895336354	0.00120865363	159.0	0.0	0.0	0.0	0.0	1	-60.0001403060998	60.0001403060998
	8000	2486	0.000838583522	0.00273507289	0.000350161965	142.0	0.0	0.0	0.0	0.0	1	-60.0001403060998	60.0001403060998
	8000	2487	0.00108407008	0.00272505509	0.000340452145	118.0	0.0	0.0	0.0	0.0	1	-60.0001403060998	60.0001403060998
	2488	2489	0.000742876854	0.00331022472	0.000433758325	175.0	0.0	0.0	0.0	0.0	1	-60.0001403060998	60.0001403060998
	8234	8486	0.00614913981	0.0424490925	0.0751686518	732.0	0.0	0.0	0.0	0.0	1	-60.0001403060998	60.0001403060998
	778	2528	3.20003803e-5	0.000155297084	1.71196304e-5	175.0	0.0	0.0	0.0	0.0	1	-60.0001403060998	60.0001403060998
	2618	775	1.7538224e-5	0.000138175335	1.94900311e-5	250.0	0.0	0.0	0.0	0.0	1	-60.0001403060998	60.0001403060998
	2534	2500	0.00157148391	0.0135333669	0.0037895698	437.0	0.0	0.0	0.0	0.0	1	-60.0001403060998	60.0001403060998
	2528	2534	0.00653306878	0.0322750702	0.00454591905	191.0	0.0	0.0	0.0	0.0	1	-60.0001403060998	60.0001403060998
	2500	2618	0.00777053207	0.0500540746	0.00632812824	219.0	0.0	0.0	0.0	0.0	1	-60.0001403060998	60.0001403060998
	8328	2622	0.00352184195	0.0247118314	0.0421135471	732.0	0.0	0.0	0.0	0.0	1	-60.0001403060998	60.0001403060998
	2622	8486	1.52014109e-5	0.000107514132	0.000227633975	383.0	0.0	0.0	0.0	0.0	1	-60.0001403060998	60.0001403060998
	7753	2498	0.0121143386	0.103921648	0.0142665892	261.0	0.0	0.0	0.0	0.0	1	-60.0001403060998	60.0001403060998
	2498	1718	0.0145448556	0.0405605035	0.00410567394	118.0	0.0	0.0	0.0	0.0	1	-60.0001403060998	60.0001403060998
	203	2538	0.000287501973	0.00220047793	0.000782513397	437.0	0.0	0.0	0.0	0.0	1	-60.0001403060998	60.0001403060998
	2546	2490	0.00511699979	0.0249699813	0.00332555792	185.0	0.0	0.0	0.0	0.0	1	-60.0001403060998	60.0001403060998
	2538	2546	0.00403316394	0.0131543724	0.00168411738	142.0	0.0	0.0	0.0	0.0	1	-60.0001403060998	60.0001403060998
	2491	2575	0.00533266894	0.0277775066	0.00351332692	191.0	0.0	0.0	0.0	0.0	1	-60.0001403060998	60.0001403060998
	2575	8306	0.0217254592	0.0605870268	0.00613311511	118.0	0.0	0.0	0.0	0.0	1	-60.0001403060998	60.0001403060998
	2542	2492	0.00222977265	0.00847543765	0.00114413602	159.0	0.0	0.0	0.0	0.0	1	-60.0001403060998	60.0001403060998
	8306	2542	0.000365491748	0.00407785338	0.00130901997	523.0	0.0	0.0	0.0	0.0	1	-60.0001403060998	60.0001403060998
	2491	8329	0.000129356333	0.000896870612	0.000253555522	381.0	0.0	0.0	0.0	0.0	1	-60.0001403060998	60.0001403060998
	8235	198	0.0449299773	0.289929958	0.0367480881	219.0	0.0	0.0	0.0	0.0	1	-60.0001403060998	60.0001403060998
	7753	7611	0.000259364897	0.00180683395	0.000327568259	250.0	0.0	0.0	0.0	0.0	1	-60.0001403060998	60.0001403060998
	7611	2619	0.0615460655	0.397797986	0.0505379334	177.755244	0.0	0.0	0.0	0.0	1	-60.0001403060998	60.0001403060998
	2619	8235	0.00453376777	0.0364236877	0.00493746584	250.0	0.0	0.0	0.0	0.0	1	-60.0001403060998	60.0001403060998
	200	8141	0.122756307	0.0941651412	0.0010581944	24.0	0.0	0.0	0.0	0.0	1	-60.0001403060998	60.0001403060998
	8487	2611	0.0113592234	0.0389672561	0.00450209033	142.0	0.0	0.0	0.0	0.0	1	-60.0001403060998	60.0001403060998
	2611	2493	0.0127082921	0.0319459441	0.00399124887	118.0	0.0	0.0	0.0	0.0	1	-60.0001403060998	60.0001403060998
	2494	198	0.0111598359	0.0376012182	0.00450668871	142.0	0.0	0.0	0.0	0.0	1	-60.0001403060998	60.0001403060998
	2494	7753	0.0279274037	0.17181573	0.0239190131	219.0	0.0	0.0	0.0	0.0	1	-60.0001403060998	60.0001403060998
	198	8768	0.0453131015	0.353423715	0.0444459377	200.0733825	0.0	0.0	0.0	0.0	1	-60.0001403060998	60.0001403060998
	205	2506	0.0110412913	0.100446442	0.0122309079	261.0	0.0	0.0	0.0	0.0	1	-60.0001403060998	60.0001403060998
	2506	1043	0.0205489097	0.063907473	0.00643162062	128.0	0.0	0.0	0.0	0.0	1	-60.0001403060998	60.0001403060998
	2495	2496	0.00309580406	0.00802330662	0.00117053237	128.0	0.0	0.0	0.0	0.0	1	-60.0001403060998	60.0001403060998
	1718	1528	0.0473475171	0.180109905	0.0243392022	159.0	0.0	0.0	0.0	0.0	1	-60.0001403060998	60.0001403060998
	7765	2408	0.0108950663	0.0287941087	0.00325028351	118.0	0.0	0.0	0.0	0.0	1	-60.0001403060998	60.0001403060998
	7765	2497	0.00157223131	0.0122538998	0.0017668853	250.0	0.0	0.0	0.0	0.0	1	-60.0001403060998	60.0001403060998
	2497	2498	0.0773647909	0.217253414	0.0270032946	128.0	0.0	0.0	0.0	0.0	1	-60.0001403060998	60.0001403060998
	196	2497	0.000411768236	0.0055071286	0.000726105631	347.0	0.0	0.0	0.0	0.0	1	-60.0001403060998	60.0001403060998
	2499	2617	0.00227303584	0.00620967101	8.82876131e-5	64.0	0.0	0.0	0.0	0.0	1	-60.0001403060998	60.0001403060998
	2617	8305	0.0323409623	0.0927595501	0.00119415298	64.0	0.0	0.0	0.0	0.0	1	-60.0001403060998	60.0001403060998
	7764	195	0.139759104	0.276764154	0.00340124793	41.0	0.0	0.0	0.0	0.0	1	-60.0001403060998	60.0001403060998
	2500	2501	0.000166693364	0.000428500002	5.11691937e-5	118.0	0.0	0.0	0.0	0.0	1	-60.0001403060998	60.0001403060998
	777	2523	0.0190300167	0.101177606	0.0113238232	185.0	0.0	0.0	0.0	0.0	1	-60.0001403060998	60.0001403060998
	2523	2521	0.0037046966	0.0205554966	0.00301325555	204.99999999999997	0.0	0.0	0.0	0.0	1	-60.0001403060998	60.0001403060998
	2521	1872	4.02618323e-5	0.000313797752	4.52461401e-5	250.0	0.0	0.0	0.0	0.0	1	-60.0001403060998	60.0001403060998
	8235	774	0.0135835734	0.0453154751	0.00554254872	142.0	0.0	0.0	0.0	0.0	1	-60.0001403060998	60.0001403060998
	196	2502	0.00114797359	0.00658300935	0.00105518617	219.0	0.0	0.0	0.0	0.0	1	-60.0001403060998	60.0001403060998
	1718	2503	0.0123439654	0.0317319845	0.0037893674	118.0	0.0	0.0	0.0	0.0	1	-60.0001403060998	60.0001403060998
	2503	1719	4.57073724e-5	0.000209682571	2.59035436e-5	175.0	0.0	0.0	0.0	0.0	1	-60.0001403060998	60.0001403060998
	2503	194	0.0116175639	0.0301096157	0.00439285906	128.0	0.0	0.0	0.0	0.0	1	-60.0001403060998	60.0001403060998
	1872	2504	0.00221881959	0.00586392394	0.000661907227	118.0	0.0	0.0	0.0	0.0	1	-60.0001403060998	60.0001403060998
	2504	8235	0.00142882899	0.00697234329	0.000928579371	370.0	0.0	0.0	0.0	0.0	1	-60.0001403060998	60.0001403060998
	2504	8235	0.00567908497	0.0145986603	0.00174330442	118.0	0.0	0.0	0.0	0.0	1	-60.0001403060998	60.0001403060998
	8234	2505	0.000839387522	0.0107036267	0.0364449741	834.0	0.0	0.0	0.0	0.0	1	-60.0001403060998	60.0001403060998
	202	182	0.0126674537	0.0659890664	0.00834728598	191.0	0.0	0.0	0.0	0.0	1	-60.0001403060998	60.0001403060998
	182	2506	0.00560713908	0.0384896142	0.00541405261	229.99999999999997	0.0	0.0	0.0	0.0	1	-60.0001403060998	60.0001403060998
	2507	1869	0.0013069144	0.00948861964	0.00158111785	250.0	0.0	0.0	0.0	0.0	1	-60.0001403060998	60.0001403060998
	771	5545	6.10390364e-5	0.00026566514	3.64998416e-5	175.0	0.0	0.0	0.0	0.0	1	-60.0001403060998	60.0001403060998
	5545	5543	0.000758304847	0.00650341943	0.000892476885	261.0	0.0	0.0	0.0	0.0	1	-60.0001403060998	60.0001403060998
	5543	5527	0.00129890872	0.010805621	0.00157799601	261.0	0.0	0.0	0.0	0.0	1	-60.0001403060998	60.0001403060998
	5527	2507	0.00396288545	0.0296959934	0.00349309133	229.99999999999997	0.0	0.0	0.0	0.0	1	-60.0001403060998	60.0001403060998
	2507	1525	4.50755669e-5	0.000151869987	1.820163e-5	142.0	0.0	0.0	0.0	0.0	1	-60.0001403060998	60.0001403060998
	1869	2508	0.00278530721	0.0237237178	0.00285456134	250.0	0.0	0.0	0.0	0.0	1	-60.0001403060998	60.0001403060998
	2508	2509	0.00107012035	0.00677773559	0.000887093454	219.0	0.0	0.0	0.0	0.0	1	-60.0001403060998	60.0001403060998
	2509	2028	4.05102462e-5	0.000185840755	2.29581985e-5	175.0	0.0	0.0	0.0	0.0	1	-60.0001403060998	60.0001403060998
	2509	2526	0.00120152674	0.00804616926	0.00243957067	381.0	0.0	0.0	0.0	0.0	1	-60.0001403060998	60.0001403060998
...
];

%%-----  OPF Data  -----%%
%% cost data
%    1    startup    shutdown    n    x1    y1    ...    xn    yn
%    2    startup    shutdown    n    c(n-1)    ...    c0
mpc.gencost = [
	2	0.0	0.0	3	0.05917235500000001	14.8788144	46.4995731
	2	0.0	0.0	3	0.082991653	44.9151794	1427.41303
	2	0.0	0.0	3	0.082991653	44.9151794	1427.41303
	2	0.0	0.0	3	0.07872443200000001	14.8788144	34.6467874
	2	0.0	0.0	3	0.07872443200000001	14.8788144	34.6467874
	2	0.0	0.0	3	0.07872443200000001	14.8788144	34.6467874
	2	0.0	0.0	3	0.07872443200000001	14.8788144	34.6467874
	2	0.0	0.0	3	0.07872443200000001	14.8788144	34.6467874
	2	0.0	0.0	3	0.07872443200000001	14.8788144	34.6467874
	2	0.0	0.0	3	0.07872443200000001	14.8788144	34.6467874
	2	0.0	0.0	3	0.07872443200000001	14.8788144	34.6467874
	2	0.0	0.0	3	0.019693715	14.8788144	138.645776
	2	0.0	0.0	3	0.073985797	14.8788144	36.8238805
	2	0.0	0.0	3	0.073985797	14.8788144	36.8238805
	2	0.0	0.0	3	0.061429747	14.8788144	44.2781598
	2	0.0	0.0	3	0.10217834800000002	14.8788144	26.4292728
	2	0.0	0.0	3	0.101288764	14.8788144	27.9399979
	2	0.0	0.0	3	0.101288764	14.8788144	27.9399979
	2	0.0	0.0	3	0.04009894	14.8788144	68.1855659
	2	0.0	0.0	3	0.042766954	14.8788144	64.0300345
	2	0.0	0.0	3	0.05917235500000001	14.8788144	46.4995731
	2	0.0	0.0	3	0.07872443200000001	14.8788144	34.6467874
	2	0.0	0.0	3	0.07872443200000001	14.8788144	34.6467874
	2	0.0	0.0	3	0.049901925	14.8788144	55.0498039
	2	0.0	0.0	3	0.049901925	14.8788144	55.0498039
	2	0.0	0.0	3	0.049901925	14.8788144	55.0498039
	2	0.0	0.0	3	0.049901925	14.8788144	55.0498039
	2	0.0	0.0	3	0.111	14.8788144	24.5526988
	2	0.0	0.0	3	0.120339515	14.8788144	22.3377955
	2	0.0	0.0	3	0.120339515	14.8788144	22.3377955
	2	0.0	0.0	3	0.075886016	14.8788144	36.1349397
	2	0.0	0.0	3	0.0694	14.8788144	39.3959214
	2	0.0	0.0	3	0.0694	14.8788144	39.3959214
	2	0.0	0.0	3	0.036962208	14.8788144	75.8585367
	2	0.0	0.0	3	0.036962208	14.8788144	75.8585367
	2	0.0	0.0	3	0.05917235500000001	14.8788144	46.4995731
	2	0.0	0.0	3	0.08577220500000002	14.8788144	32.0494007
	2	0.0	0.0	3	0.08577220500000002	14.8788144	32.0494007
	2	0.0	0.0	3	0.074347899	14.8788144	36.540858
...